<?xml version="1.0" encoding="UTF-8"?>

<!-- generated on 2022-05-23 17:12:19 by Eclipse SUMO netedit Version 1.13.0
<configuration xmlns:xsi="http://www.w3.org/2001/XMLSchema-instance" xsi:noNamespaceSchemaLocation="http://sumo.dlr.de/xsd/netconvertConfiguration.xsd">

    <output>
        <output-file value="/usr/local/opt/sumo@1.13/file/Cross/cross.net.xml"/>
    </output>

    <processing>
        <offset.disable-normalization value="true"/>
    </processing>

    <junctions>
        <no-turnarounds value="true"/>
    </junctions>

    <report>
        <aggregate-warnings value="5"/>
    </report>

</configuration>
-->

<net version="1.9" junctionCornerDetail="5" limitTurnSpeed="5.50" xmlns:xsi="http://www.w3.org/2001/XMLSchema-instance" xsi:noNamespaceSchemaLocation="http://sumo.dlr.de/xsd/net_file.xsd">

    <location netOffset="0.00,0.00" convBoundary="-100.00,-100.00,100.00,100.00" origBoundary="10000000000.00,10000000000.00,-10000000000.00,-10000000000.00" projParameter="!"/>

    <edge id=":J0_0" function="internal">
        <lane id=":J0_0_0" index="0" speed="6.51" length="9.03" shape="-11.20,13.60 -11.55,11.15 -12.60,9.40 -14.35,8.35 -16.80,8.00"/>
    </edge>
    <edge id=":J0_1" function="internal">
        <lane id=":J0_1_0" index="0" speed="13.89" length="27.20" shape="-11.20,13.60 -11.20,-13.60"/>
        <lane id=":J0_1_1" index="1" speed="13.89" length="27.20" shape="-8.00,13.60 -8.00,-13.60"/>
        <lane id=":J0_1_2" index="2" speed="13.89" length="27.20" shape="-4.80,13.60 -4.80,-13.60"/>
    </edge>
    <edge id=":J0_4" function="internal">
        <lane id=":J0_4_0" index="0" speed="10.88" length="27.14" shape="-1.60,13.60 -0.45,6.95 3.00,2.20 8.75,-0.65 16.80,-1.60"/>
    </edge>
    <edge id=":J0_5" function="internal">
        <lane id=":J0_5_0" index="0" speed="6.51" length="9.03" shape="16.80,8.00 14.35,8.35 12.60,9.40 11.55,11.15 11.20,13.60"/>
    </edge>
    <edge id=":J0_6" function="internal">
        <lane id=":J0_6_0" index="0" speed="13.89" length="33.60" shape="16.80,8.00 -16.80,8.00"/>
        <lane id=":J0_6_1" index="1" speed="13.89" length="33.60" shape="16.80,4.80 -16.80,4.80"/>
    </edge>
    <edge id=":J0_8" function="internal">
        <lane id=":J0_8_0" index="0" speed="10.88" length="27.14" shape="16.80,1.60 8.75,0.65 3.00,-2.20 -0.45,-6.95 -1.60,-13.60"/>
    </edge>
    <edge id=":J0_9" function="internal">
        <lane id=":J0_9_0" index="0" speed="6.51" length="9.03" shape="11.20,-13.60 11.55,-11.15 12.60,-9.40 14.35,-8.35 16.80,-8.00"/>
    </edge>
    <edge id=":J0_10" function="internal">
        <lane id=":J0_10_0" index="0" speed="13.89" length="27.20" shape="11.20,-13.60 11.20,13.60"/>
        <lane id=":J0_10_1" index="1" speed="13.89" length="27.20" shape="8.00,-13.60 8.00,13.60"/>
        <lane id=":J0_10_2" index="2" speed="13.89" length="27.20" shape="4.80,-13.60 4.80,13.60"/>
    </edge>
    <edge id=":J0_13" function="internal">
        <lane id=":J0_13_0" index="0" speed="10.88" length="27.14" shape="1.60,-13.60 0.45,-6.95 -3.00,-2.20 -8.75,0.65 -16.80,1.60"/>
    </edge>
    <edge id=":J0_14" function="internal">
        <lane id=":J0_14_0" index="0" speed="6.51" length="9.03" shape="-16.80,-8.00 -14.35,-8.35 -12.60,-9.40 -11.55,-11.15 -11.20,-13.60"/>
    </edge>
    <edge id=":J0_15" function="internal">
        <lane id=":J0_15_0" index="0" speed="13.89" length="33.60" shape="-16.80,-8.00 16.80,-8.00"/>
        <lane id=":J0_15_1" index="1" speed="13.89" length="33.60" shape="-16.80,-4.80 16.80,-4.80"/>
    </edge>
    <edge id=":J0_17" function="internal">
        <lane id=":J0_17_0" index="0" speed="10.88" length="27.14" shape="-16.80,-1.60 -8.75,-0.65 -3.00,2.20 0.45,6.95 1.60,13.60"/>
    </edge>

    <edge id="-E0" from="J1" to="J0" priority="-1">
        <lane id="-E0_0" index="0" speed="13.89" length="83.20" shape="100.00,8.00 16.80,8.00"/>
        <lane id="-E0_1" index="1" speed="13.89" length="83.20" shape="100.00,4.80 16.80,4.80"/>
        <lane id="-E0_2" index="2" speed="13.89" length="83.20" shape="100.00,1.60 16.80,1.60"/>
    </edge>
    <edge id="-E1" from="J2" to="J0" priority="-1">
        <lane id="-E1_0" index="0" speed="13.89" length="86.40" shape="11.20,-100.00 11.20,-13.60"/>
        <lane id="-E1_1" index="1" speed="13.89" length="86.40" shape="8.00,-100.00 8.00,-13.60"/>
        <lane id="-E1_2" index="2" speed="13.89" length="86.40" shape="4.80,-100.00 4.80,-13.60"/>
        <lane id="-E1_3" index="3" speed="13.89" length="86.40" shape="1.60,-100.00 1.60,-13.60"/>
    </edge>
    <edge id="-E2" from="J3" to="J0" priority="-1">
        <lane id="-E2_0" index="0" speed="13.89" length="83.20" shape="-100.00,-8.00 -16.80,-8.00"/>
        <lane id="-E2_1" index="1" speed="13.89" length="83.20" shape="-100.00,-4.80 -16.80,-4.80"/>
        <lane id="-E2_2" index="2" speed="13.89" length="83.20" shape="-100.00,-1.60 -16.80,-1.60"/>
    </edge>
    <edge id="-E3" from="J4" to="J0" priority="-1">
        <lane id="-E3_0" index="0" speed="13.89" length="86.40" shape="-11.20,100.00 -11.20,13.60"/>
        <lane id="-E3_1" index="1" speed="13.89" length="86.40" shape="-8.00,100.00 -8.00,13.60"/>
        <lane id="-E3_2" index="2" speed="13.89" length="86.40" shape="-4.80,100.00 -4.80,13.60"/>
        <lane id="-E3_3" index="3" speed="13.89" length="86.40" shape="-1.60,100.00 -1.60,13.60"/>
    </edge>
    <edge id="E0" from="J0" to="J1" priority="-1">
        <lane id="E0_0" index="0" speed="13.89" length="83.20" shape="16.80,-8.00 100.00,-8.00"/>
        <lane id="E0_1" index="1" speed="13.89" length="83.20" shape="16.80,-4.80 100.00,-4.80"/>
        <lane id="E0_2" index="2" speed="13.89" length="83.20" shape="16.80,-1.60 100.00,-1.60"/>
    </edge>
    <edge id="E1" from="J0" to="J2" priority="-1">
        <lane id="E1_0" index="0" speed="13.89" length="86.40" shape="-11.20,-13.60 -11.20,-100.00"/>
        <lane id="E1_1" index="1" speed="13.89" length="86.40" shape="-8.00,-13.60 -8.00,-100.00"/>
        <lane id="E1_2" index="2" speed="13.89" length="86.40" shape="-4.80,-13.60 -4.80,-100.00"/>
        <lane id="E1_3" index="3" speed="13.89" length="86.40" shape="-1.60,-13.60 -1.60,-100.00"/>
    </edge>
    <edge id="E2" from="J0" to="J3" priority="-1">
        <lane id="E2_0" index="0" speed="13.89" length="83.20" shape="-16.80,8.00 -100.00,8.00"/>
        <lane id="E2_1" index="1" speed="13.89" length="83.20" shape="-16.80,4.80 -100.00,4.80"/>
        <lane id="E2_2" index="2" speed="13.89" length="83.20" shape="-16.80,1.60 -100.00,1.60"/>
    </edge>
    <edge id="E3" from="J0" to="J4" priority="-1">
        <lane id="E3_0" index="0" speed="13.89" length="86.40" shape="11.20,13.60 11.20,100.00"/>
        <lane id="E3_1" index="1" speed="13.89" length="86.40" shape="8.00,13.60 8.00,100.00"/>
        <lane id="E3_2" index="2" speed="13.89" length="86.40" shape="4.80,13.60 4.80,100.00"/>
        <lane id="E3_3" index="3" speed="13.89" length="86.40" shape="1.60,13.60 1.60,100.00"/>
    </edge>

    <tlLogic id="J0" type="static" programID="0" offset="0">
        <phase duration="45" state="GGGGrGrrrGGGGrGrrrrr"/>
        <phase duration="3"  state="GyyyrGrrrGyyyrGrrrrr"/>
        <phase duration="20" state="GrrrGGrrrGrrrGGrrrrr"/>
        <phase duration="3"  state="GrrryGrrrGrrryGrrrrr"/>
        <phase duration="33" state="GrrrrGGGrGrrrrGGGrrr"/>
        <phase duration="3"  state="GrrrrGyyrGrrrrGyyrrr"/>
        <phase duration="15" state="GrrrrGrrGGrrrrGrrGrr"/>
        <phase duration="3"  state="GrrrrGrryGrrrrGrryrr"/>
    </tlLogic>

    <junction id="J0" type="traffic_light" x="0.00" y="0.00" incLanes="-E3_0 -E3_1 -E3_2 -E3_3 -E0_0 -E0_1 -E0_2 -E1_0 -E1_1 -E1_2 -E1_3 -E2_0 -E2_1 -E2_2" intLanes=":J0_0_0 :J0_1_0 :J0_1_1 :J0_1_2 :J0_4_0 :J0_5_0 :J0_6_0 :J0_6_1 :J0_8_0 :J0_9_0 :J0_10_0 :J0_10_1 :J0_10_2 :J0_13_0 :J0_14_0 :J0_15_0 :J0_15_1 :J0_17_0" shape="-12.80,13.60 12.80,13.60 13.24,11.38 13.80,10.60 14.58,10.04 15.58,9.71 16.80,9.60 16.80,-9.60 14.58,-10.04 13.80,-10.60 13.24,-11.38 12.91,-12.38 12.80,-13.60 -12.80,-13.60 -13.24,-11.38 -13.80,-10.60 -14.58,-10.04 -15.58,-9.71 -16.80,-9.60 -16.80,9.60 -14.58,10.04 -13.80,10.60 -13.24,11.38 -12.91,12.38">
        <request index="0"  response="000000000000000000" foes="000000000011000000" cont="0"/>
        <request index="1"  response="000000000000000000" foes="111110000011000000" cont="0"/>
        <request index="2"  response="000000000000000000" foes="111110000011000000" cont="0"/>
        <request index="3"  response="000000000000000000" foes="111110000011000000" cont="0"/>
        <request index="4"  response="000001110000000000" foes="100001110111000000" cont="0"/>
        <request index="5"  response="000001110000000000" foes="000001110000000000" cont="0"/>
        <request index="6"  response="000001110000011111" foes="100001110000011111" cont="0"/>
        <request index="7"  response="000001110000011111" foes="100001110000011111" cont="0"/>
        <request index="8"  response="011011110000010000" foes="011011110000010000" cont="0"/>
        <request index="9"  response="000000000000000000" foes="011000000000000000" cont="0"/>
        <request index="10" response="000000000000000000" foes="011000000111110000" cont="0"/>
        <request index="11" response="000000000000000000" foes="011000000111110000" cont="0"/>
        <request index="12" response="000000000000000000" foes="011000000111110000" cont="0"/>
        <request index="13" response="000000000000001110" foes="111000000100001110" cont="0"/>
        <request index="14" response="000000000000001110" foes="000000000000001110" cont="0"/>
        <request index="15" response="000011111000001110" foes="000011111100001110" cont="0"/>
        <request index="16" response="000011111000001110" foes="000011111100001110" cont="0"/>
        <request index="17" response="000010000011011110" foes="000010000011011110" cont="0"/>
    </junction>
    <junction id="J1" type="dead_end" x="100.00" y="0.00" incLanes="E0_0 E0_1 E0_2" intLanes="" shape="100.00,0.00 100.00,-9.60 100.00,0.00"/>
    <junction id="J2" type="dead_end" x="0.00" y="-100.00" incLanes="E1_0 E1_1 E1_2 E1_3" intLanes="" shape="0.00,-100.00 -12.80,-100.00 0.00,-100.00"/>
    <junction id="J3" type="dead_end" x="-100.00" y="0.00" incLanes="E2_0 E2_1 E2_2" intLanes="" shape="-100.00,0.00 -100.00,9.60 -100.00,0.00"/>
    <junction id="J4" type="dead_end" x="0.00" y="100.00" incLanes="E3_0 E3_1 E3_2 E3_3" intLanes="" shape="0.00,100.00 12.80,100.00 0.00,100.00"/>

    <connection from="-E0" to="E3" fromLane="0" toLane="0" via=":J0_5_0" tl="J0" linkIndex="5" dir="r" state="o"/>
    <connection from="-E0" to="E2" fromLane="0" toLane="0" via=":J0_6_0" tl="J0" linkIndex="6" dir="s" state="o"/>
    <connection from="-E0" to="E2" fromLane="1" toLane="1" via=":J0_6_1" tl="J0" linkIndex="7" dir="s" state="o"/>
    <connection from="-E0" to="E1" fromLane="2" toLane="3" via=":J0_8_0" tl="J0" linkIndex="8" dir="l" state="o"/>
    <connection from="-E1" to="E0" fromLane="0" toLane="0" via=":J0_9_0" tl="J0" linkIndex="9" dir="r" state="O"/>
    <connection from="-E1" to="E3" fromLane="0" toLane="0" via=":J0_10_0" tl="J0" linkIndex="10" dir="s" state="O"/>
    <connection from="-E1" to="E3" fromLane="1" toLane="1" via=":J0_10_1" tl="J0" linkIndex="11" dir="s" state="O"/>
    <connection from="-E1" to="E3" fromLane="2" toLane="2" via=":J0_10_2" tl="J0" linkIndex="12" dir="s" state="O"/>
    <connection from="-E1" to="E2" fromLane="3" toLane="2" via=":J0_13_0" tl="J0" linkIndex="13" dir="l" state="o"/>
    <connection from="-E2" to="E1" fromLane="0" toLane="0" via=":J0_14_0" tl="J0" linkIndex="14" dir="r" state="o"/>
    <connection from="-E2" to="E0" fromLane="0" toLane="0" via=":J0_15_0" tl="J0" linkIndex="15" dir="s" state="o"/>
    <connection from="-E2" to="E0" fromLane="1" toLane="1" via=":J0_15_1" tl="J0" linkIndex="16" dir="s" state="o"/>
    <connection from="-E2" to="E3" fromLane="2" toLane="3" via=":J0_17_0" tl="J0" linkIndex="17" dir="l" state="o"/>
    <connection from="-E3" to="E2" fromLane="0" toLane="0" via=":J0_0_0" tl="J0" linkIndex="0" dir="r" state="O"/>
    <connection from="-E3" to="E1" fromLane="0" toLane="0" via=":J0_1_0" tl="J0" linkIndex="1" dir="s" state="O"/>
    <connection from="-E3" to="E1" fromLane="1" toLane="1" via=":J0_1_1" tl="J0" linkIndex="2" dir="s" state="O"/>
    <connection from="-E3" to="E1" fromLane="2" toLane="2" via=":J0_1_2" tl="J0" linkIndex="3" dir="s" state="O"/>
    <connection from="-E3" to="E0" fromLane="3" toLane="2" via=":J0_4_0" tl="J0" linkIndex="4" dir="l" state="o"/>

    <connection from=":J0_0" to="E2" fromLane="0" toLane="0" dir="r" state="M"/>
    <connection from=":J0_1" to="E1" fromLane="0" toLane="0" dir="s" state="M"/>
    <connection from=":J0_1" to="E1" fromLane="1" toLane="1" dir="s" state="M"/>
    <connection from=":J0_1" to="E1" fromLane="2" toLane="2" dir="s" state="M"/>
    <connection from=":J0_4" to="E0" fromLane="0" toLane="2" dir="l" state="M"/>
    <connection from=":J0_5" to="E3" fromLane="0" toLane="0" dir="r" state="M"/>
    <connection from=":J0_6" to="E2" fromLane="0" toLane="0" dir="s" state="M"/>
    <connection from=":J0_6" to="E2" fromLane="1" toLane="1" dir="s" state="M"/>
    <connection from=":J0_8" to="E1" fromLane="0" toLane="3" dir="l" state="M"/>
    <connection from=":J0_9" to="E0" fromLane="0" toLane="0" dir="r" state="M"/>
    <connection from=":J0_10" to="E3" fromLane="0" toLane="0" dir="s" state="M"/>
    <connection from=":J0_10" to="E3" fromLane="1" toLane="1" dir="s" state="M"/>
    <connection from=":J0_10" to="E3" fromLane="2" toLane="2" dir="s" state="M"/>
    <connection from=":J0_13" to="E2" fromLane="0" toLane="2" dir="l" state="M"/>
    <connection from=":J0_14" to="E1" fromLane="0" toLane="0" dir="r" state="M"/>
    <connection from=":J0_15" to="E0" fromLane="0" toLane="0" dir="s" state="M"/>
    <connection from=":J0_15" to="E0" fromLane="1" toLane="1" dir="s" state="M"/>
    <connection from=":J0_17" to="E3" fromLane="0" toLane="3" dir="l" state="M"/>

</net>
