<?xml version="1.0" encoding="UTF-8"?>
<!-- generated on 2022-05-27 16:19:22.722972 by createNetTaxi.py UNKNOWN
  options: 
-->
<routes xmlns:xsi="http://www.w3.org/2001/XMLSchema-instance" xsi:noNamespaceSchemaLocation="http://sumo.dlr.de/xsd/routes_file.xsd">
    <flow id="c" type="cybercar" begin="50" period="100" number="3" line="taxi">
        <route edges="cyberin cyber0to1"/>
    </flow>
</routes>
