<?xml version="1.0" encoding="UTF-8"?>

<!-- generated on 2022-05-31 14:01:52 by Eclipse SUMO duarouter Version 1.13.0
<configuration xmlns:xsi="http://www.w3.org/2001/XMLSchema-instance" xsi:noNamespaceSchemaLocation="http://sumo.dlr.de/xsd/duarouterConfiguration.xsd">

    <input>
        <net-file value="cross.net.xml"/>
        <route-files value="cross.trips.xml"/>
    </input>

    <output>
        <output-file value="cross.rou.xml"/>
        <alternatives-output value="cross.rou.alt.xml"/>
    </output>

    <report>
        <ignore-errors value="true"/>
    </report>

</configuration>
-->

<routes xmlns:xsi="http://www.w3.org/2001/XMLSchema-instance" xsi:noNamespaceSchemaLocation="http://sumo.dlr.de/xsd/routes_file.xsd">
    <vehicle id="1" depart="1.00">
        <route edges="2o 2i"/>
    </vehicle>
    <vehicle id="2" depart="2.00">
        <route edges="51o 51i"/>
    </vehicle>
    <vehicle id="6" depart="6.00">
        <route edges="1i 2o 52i 52o 2i"/>
    </vehicle>
    <vehicle id="7" depart="7.00">
        <route edges="4o 4i"/>
    </vehicle>
    <vehicle id="9" depart="9.00">
        <route edges="52o 2i 1o 51i 51o 1i"/>
    </vehicle>
    <vehicle id="10" depart="10.00">
        <route edges="52o 2i 1o 51i"/>
    </vehicle>
    <vehicle id="12" depart="12.00">
        <route edges="54o 4i 3o 53i 53o 3i"/>
    </vehicle>
    <vehicle id="13" depart="13.00">
        <route edges="1o"/>
    </vehicle>
    <vehicle id="14" depart="14.00">
        <route edges="53o 3i 4o"/>
    </vehicle>
    <vehicle id="15" depart="15.00">
        <route edges="52o 2i 1o 51i"/>
    </vehicle>
    <vehicle id="16" depart="16.00">
        <route edges="4i 3o 53i 53o 3i 4o 54i"/>
    </vehicle>
    <vehicle id="17" depart="17.00">
        <route edges="3i 4o 54i 54o 4i"/>
    </vehicle>
    <vehicle id="19" depart="19.00">
        <route edges="53o 3i 4o 54i 54o 4i"/>
    </vehicle>
    <vehicle id="20" depart="20.00">
        <route edges="51o 1i"/>
    </vehicle>
    <vehicle id="21" depart="21.00">
        <route edges="2i 1o 51i 51o 1i 2o"/>
    </vehicle>
    <vehicle id="22" depart="22.00">
        <route edges="1i 2o 52i 52o 2i"/>
    </vehicle>
    <vehicle id="23" depart="23.00">
        <route edges="1o 51i 51o 1i 2o"/>
    </vehicle>
    <vehicle id="24" depart="24.00">
        <route edges="4o 54i 54o 4i 3o 53i 53o 3i"/>
    </vehicle>
    <vehicle id="27" depart="27.00">
        <route edges="4o"/>
    </vehicle>
    <vehicle id="28" depart="28.00">
        <route edges="2i 1o 51i"/>
    </vehicle>
    <vehicle id="30" depart="30.00">
        <route edges="54o 4i 3o 53i 53o 3i 4o"/>
    </vehicle>
    <vehicle id="33" depart="33.00">
        <route edges="2i 1o 51i 51o 1i"/>
    </vehicle>
    <vehicle id="34" depart="34.00">
        <route edges="2o"/>
    </vehicle>
    <vehicle id="37" depart="37.00">
        <route edges="4o 54i 54o 4i 3o 53i 53o 3i"/>
    </vehicle>
    <vehicle id="38" depart="38.00">
        <route edges="53o 3i 4o 54i 54o 4i 3o"/>
    </vehicle>
    <vehicle id="39" depart="39.00">
        <route edges="2o 2i"/>
    </vehicle>
    <vehicle id="41" depart="41.00">
        <route edges="4o 54i 54o 4i 3o 53i"/>
    </vehicle>
    <vehicle id="43" depart="43.00">
        <route edges="54o 4i"/>
    </vehicle>
    <vehicle id="44" depart="44.00">
        <route edges="1o 1i"/>
    </vehicle>
    <vehicle id="48" depart="48.00">
        <route edges="54o 4i"/>
    </vehicle>
    <vehicle id="49" depart="49.00">
        <route edges="54o 4i 3o 53i"/>
    </vehicle>
    <vehicle id="50" depart="50.00">
        <route edges="1i 2o 52i 52o 2i 1o 51i"/>
    </vehicle>
    <vehicle id="54" depart="54.00">
        <route edges="3o 53i 53o 3i 4o 54i"/>
    </vehicle>
    <vehicle id="57" depart="57.00">
        <route edges="53o 53i"/>
    </vehicle>
    <vehicle id="62" depart="62.00">
        <route edges="1i 2o"/>
    </vehicle>
    <vehicle id="65" depart="65.00">
        <route edges="2o 52i 52o 2i 1o 51i 51o 1i"/>
    </vehicle>
    <vehicle id="66" depart="66.00">
        <route edges="53o 3i 4o 54i"/>
    </vehicle>
    <vehicle id="68" depart="68.00">
        <route edges="1i 2o 52i"/>
    </vehicle>
    <vehicle id="69" depart="69.00">
        <route edges="52o 2i 1o"/>
    </vehicle>
    <vehicle id="70" depart="70.00">
        <route edges="3o 53i 53o 3i 4o 54i 54o 4i"/>
    </vehicle>
    <vehicle id="74" depart="74.00">
        <route edges="2i 1o 51i 51o 1i 2o"/>
    </vehicle>
    <vehicle id="75" depart="75.00">
        <route edges="54o 4i 3o 53i 53o 3i 4o"/>
    </vehicle>
    <vehicle id="76" depart="76.00">
        <route edges="3o 53i 53o 3i 4o 54i 54o 4i"/>
    </vehicle>
    <vehicle id="77" depart="77.00">
        <route edges="1o 51i 51o 1i 2o 52i 52o 2i"/>
    </vehicle>
    <vehicle id="78" depart="78.00">
        <route edges="3i 4o"/>
    </vehicle>
    <vehicle id="79" depart="79.00">
        <route edges="2i"/>
    </vehicle>
    <vehicle id="83" depart="83.00">
        <route edges="2i 1o 51i"/>
    </vehicle>
    <vehicle id="84" depart="84.00">
        <route edges="2i 1o"/>
    </vehicle>
    <vehicle id="85" depart="85.00">
        <route edges="54o 4i"/>
    </vehicle>
    <vehicle id="87" depart="87.00">
        <route edges="52o 2i"/>
    </vehicle>
    <vehicle id="89" depart="89.00">
        <route edges="3o"/>
    </vehicle>
    <vehicle id="90" depart="90.00">
        <route edges="51o 51i"/>
    </vehicle>
    <vehicle id="92" depart="92.00">
        <route edges="3i"/>
    </vehicle>
    <vehicle id="97" depart="97.00">
        <route edges="3o 53i"/>
    </vehicle>
    <vehicle id="99" depart="99.00">
        <route edges="54o 4i 3o 53i"/>
    </vehicle>
    <vehicle id="100" depart="100.00">
        <route edges="54o 54i"/>
    </vehicle>
    <vehicle id="104" depart="104.00">
        <route edges="3i 4o 54i"/>
    </vehicle>
    <vehicle id="105" depart="105.00">
        <route edges="2o 52i"/>
    </vehicle>
    <vehicle id="106" depart="106.00">
        <route edges="3o"/>
    </vehicle>
    <vehicle id="107" depart="107.00">
        <route edges="54o 54i"/>
    </vehicle>
    <vehicle id="109" depart="109.00">
        <route edges="1o 51i 51o 1i 2o"/>
    </vehicle>
    <vehicle id="110" depart="110.00">
        <route edges="54o 4i"/>
    </vehicle>
    <vehicle id="113" depart="113.00">
        <route edges="4i 3o 53i"/>
    </vehicle>
    <vehicle id="115" depart="115.00">
        <route edges="1i 2o 52i 52o 2i"/>
    </vehicle>
    <vehicle id="117" depart="117.00">
        <route edges="2i 1o"/>
    </vehicle>
    <vehicle id="119" depart="119.00">
        <route edges="4o"/>
    </vehicle>
    <vehicle id="120" depart="120.00">
        <route edges="3o 53i 53o 3i 4o"/>
    </vehicle>
    <vehicle id="121" depart="121.00">
        <route edges="4i 3o 53i 53o 3i 4o 54i"/>
    </vehicle>
    <vehicle id="122" depart="122.00">
        <route edges="2i 1o 51i"/>
    </vehicle>
    <vehicle id="124" depart="124.00">
        <route edges="51o 1i 2o"/>
    </vehicle>
    <vehicle id="125" depart="125.00">
        <route edges="2o 52i"/>
    </vehicle>
    <vehicle id="127" depart="127.00">
        <route edges="54o 54i"/>
    </vehicle>
    <vehicle id="128" depart="128.00">
        <route edges="1i 2o 52i 52o 2i"/>
    </vehicle>
    <vehicle id="130" depart="130.00">
        <route edges="53o 53i"/>
    </vehicle>
    <vehicle id="133" depart="133.00">
        <route edges="4o 54i"/>
    </vehicle>
    <vehicle id="135" depart="135.00">
        <route edges="52o 2i 1o 51i 51o 1i 2o"/>
    </vehicle>
    <vehicle id="136" depart="136.00">
        <route edges="4o 54i"/>
    </vehicle>
    <vehicle id="137" depart="137.00">
        <route edges="1o"/>
    </vehicle>
    <vehicle id="140" depart="140.00">
        <route edges="51o 1i 2o 52i 52o 2i"/>
    </vehicle>
    <vehicle id="142" depart="142.00">
        <route edges="3o 53i"/>
    </vehicle>
    <vehicle id="145" depart="145.00">
        <route edges="1i 2o 52i"/>
    </vehicle>
    <vehicle id="150" depart="150.00">
        <route edges="53o 3i 4o 54i 54o 4i"/>
    </vehicle>
    <vehicle id="151" depart="151.00">
        <route edges="53o 3i 4o 54i 54o 4i"/>
    </vehicle>
    <vehicle id="152" depart="152.00">
        <route edges="1o"/>
    </vehicle>
    <vehicle id="156" depart="156.00">
        <route edges="2i 1o"/>
    </vehicle>
    <vehicle id="158" depart="158.00">
        <route edges="3i 4o"/>
    </vehicle>
    <vehicle id="160" depart="160.00">
        <route edges="53o 3i 4o 54i"/>
    </vehicle>
    <vehicle id="162" depart="162.00">
        <route edges="1i 2o 52i 52o 2i 1o 51i"/>
    </vehicle>
    <vehicle id="165" depart="165.00">
        <route edges="52o 2i 1o 51i 51o 1i 2o"/>
    </vehicle>
    <vehicle id="166" depart="166.00">
        <route edges="52o 2i 1o"/>
    </vehicle>
    <vehicle id="167" depart="167.00">
        <route edges="53o 53i"/>
    </vehicle>
    <vehicle id="168" depart="168.00">
        <route edges="2i 1o 51i 51o 1i 2o 52i"/>
    </vehicle>
    <vehicle id="170" depart="170.00">
        <route edges="52o 2i"/>
    </vehicle>
    <vehicle id="171" depart="171.00">
        <route edges="1i 2o 52i 52o 2i"/>
    </vehicle>
    <vehicle id="174" depart="174.00">
        <route edges="4o 54i 54o 4i 3o 53i 53o 3i"/>
    </vehicle>
    <vehicle id="175" depart="175.00">
        <route edges="54o 4i"/>
    </vehicle>
    <vehicle id="180" depart="180.00">
        <route edges="51o 1i 2o"/>
    </vehicle>
    <vehicle id="181" depart="181.00">
        <route edges="4o 4i"/>
    </vehicle>
    <vehicle id="182" depart="182.00">
        <route edges="3i 4o 54i 54o 4i"/>
    </vehicle>
    <vehicle id="183" depart="183.00">
        <route edges="2o 52i 52o 2i 1o 51i"/>
    </vehicle>
    <vehicle id="186" depart="186.00">
        <route edges="51o 51i"/>
    </vehicle>
    <vehicle id="190" depart="190.00">
        <route edges="51o 1i 2o"/>
    </vehicle>
    <vehicle id="195" depart="195.00">
        <route edges="53o 3i 4o"/>
    </vehicle>
    <vehicle id="197" depart="197.00">
        <route edges="1i 2o"/>
    </vehicle>
    <vehicle id="198" depart="198.00">
        <route edges="3o 53i 53o 3i 4o 54i 54o 4i"/>
    </vehicle>
    <vehicle id="199" depart="199.00">
        <route edges="4o 54i 54o 4i 3o"/>
    </vehicle>
    <vehicle id="201" depart="201.00">
        <route edges="3o 53i"/>
    </vehicle>
    <vehicle id="202" depart="202.00">
        <route edges="52o 2i"/>
    </vehicle>
    <vehicle id="204" depart="204.00">
        <route edges="4o 54i 54o 4i 3o 53i 53o 3i"/>
    </vehicle>
    <vehicle id="205" depart="205.00">
        <route edges="52o 52i"/>
    </vehicle>
    <vehicle id="206" depart="206.00">
        <route edges="51o 1i 2o 52i 52o 2i"/>
    </vehicle>
    <vehicle id="207" depart="207.00">
        <route edges="2i 1o 51i 51o 1i"/>
    </vehicle>
    <vehicle id="210" depart="210.00">
        <route edges="3i 4o"/>
    </vehicle>
    <vehicle id="211" depart="211.00">
        <route edges="2i 1o 51i"/>
    </vehicle>
    <vehicle id="214" depart="214.00">
        <route edges="52o 52i"/>
    </vehicle>
    <vehicle id="221" depart="221.00">
        <route edges="4o 54i"/>
    </vehicle>
    <vehicle id="222" depart="222.00">
        <route edges="53o 3i 4o"/>
    </vehicle>
    <vehicle id="230" depart="230.00">
        <route edges="1i 2o"/>
    </vehicle>
    <vehicle id="231" depart="231.00">
        <route edges="2o"/>
    </vehicle>
    <vehicle id="233" depart="233.00">
        <route edges="2i 1o 51i"/>
    </vehicle>
    <vehicle id="234" depart="234.00">
        <route edges="51o 1i"/>
    </vehicle>
    <vehicle id="235" depart="235.00">
        <route edges="3i 4o 54i 54o 4i"/>
    </vehicle>
    <vehicle id="237" depart="237.00">
        <route edges="3o 53i"/>
    </vehicle>
    <vehicle id="242" depart="242.00">
        <route edges="53o 3i 4o 54i"/>
    </vehicle>
    <vehicle id="244" depart="244.00">
        <route edges="4i 3o 53i 53o 3i 4o"/>
    </vehicle>
    <vehicle id="245" depart="245.00">
        <route edges="2i"/>
    </vehicle>
    <vehicle id="251" depart="251.00">
        <route edges="3i 4o 54i 54o 4i"/>
    </vehicle>
    <vehicle id="255" depart="255.00">
        <route edges="2i 1o 51i 51o 1i 2o"/>
    </vehicle>
    <vehicle id="257" depart="257.00">
        <route edges="52o 52i"/>
    </vehicle>
    <vehicle id="258" depart="258.00">
        <route edges="2o 52i 52o 2i 1o 51i 51o 1i"/>
    </vehicle>
    <vehicle id="260" depart="260.00">
        <route edges="54o 4i 3o 53i 53o 3i"/>
    </vehicle>
    <vehicle id="264" depart="264.00">
        <route edges="1i 2o 52i 52o 2i 1o"/>
    </vehicle>
    <vehicle id="265" depart="265.00">
        <route edges="1o 51i"/>
    </vehicle>
    <vehicle id="267" depart="267.00">
        <route edges="51o 1i 2o 52i"/>
    </vehicle>
    <vehicle id="269" depart="269.00">
        <route edges="51o 1i 2o 52i 52o 2i 1o"/>
    </vehicle>
    <vehicle id="271" depart="271.00">
        <route edges="1o 1i"/>
    </vehicle>
    <vehicle id="272" depart="272.00">
        <route edges="2o 52i 52o 2i 1o 51i"/>
    </vehicle>
    <vehicle id="273" depart="273.00">
        <route edges="54o 4i 3o 53i 53o 3i"/>
    </vehicle>
    <vehicle id="274" depart="274.00">
        <route edges="51o 1i"/>
    </vehicle>
    <vehicle id="276" depart="276.00">
        <route edges="1o 51i 51o 1i 2o 52i"/>
    </vehicle>
    <vehicle id="277" depart="277.00">
        <route edges="53o 3i 4o"/>
    </vehicle>
    <vehicle id="280" depart="280.00">
        <route edges="3o 3i"/>
    </vehicle>
    <vehicle id="281" depart="281.00">
        <route edges="4i 3o 53i 53o 3i"/>
    </vehicle>
    <vehicle id="287" depart="287.00">
        <route edges="2o 52i"/>
    </vehicle>
    <vehicle id="288" depart="288.00">
        <route edges="4i 3o"/>
    </vehicle>
    <vehicle id="291" depart="291.00">
        <route edges="52o 2i 1o"/>
    </vehicle>
    <vehicle id="293" depart="293.00">
        <route edges="3o 53i 53o 3i 4o"/>
    </vehicle>
    <vehicle id="296" depart="296.00">
        <route edges="2i 1o 51i 51o 1i 2o 52i"/>
    </vehicle>
    <vehicle id="297" depart="297.00">
        <route edges="3i 4o 54i 54o 4i 3o 53i"/>
    </vehicle>
    <vehicle id="298" depart="298.00">
        <route edges="51o 1i 2o"/>
    </vehicle>
    <vehicle id="300" depart="300.00">
        <route edges="1o 51i"/>
    </vehicle>
    <vehicle id="304" depart="304.00">
        <route edges="1o 51i 51o 1i 2o 52i 52o 2i"/>
    </vehicle>
    <vehicle id="305" depart="305.00">
        <route edges="51o 1i 2o"/>
    </vehicle>
    <vehicle id="306" depart="306.00">
        <route edges="4i 3o"/>
    </vehicle>
    <vehicle id="307" depart="307.00">
        <route edges="4i 3o"/>
    </vehicle>
    <vehicle id="308" depart="308.00">
        <route edges="51o 1i 2o"/>
    </vehicle>
    <vehicle id="309" depart="309.00">
        <route edges="51o 1i 2o"/>
    </vehicle>
    <vehicle id="310" depart="310.00">
        <route edges="2o 52i 52o 2i 1o"/>
    </vehicle>
    <vehicle id="311" depart="311.00">
        <route edges="2i 1o"/>
    </vehicle>
    <vehicle id="313" depart="313.00">
        <route edges="2i"/>
    </vehicle>
    <vehicle id="315" depart="315.00">
        <route edges="54o 4i"/>
    </vehicle>
    <vehicle id="316" depart="316.00">
        <route edges="2o 52i 52o 2i 1o"/>
    </vehicle>
    <vehicle id="317" depart="317.00">
        <route edges="2i"/>
    </vehicle>
    <vehicle id="318" depart="318.00">
        <route edges="2i 1o 51i 51o 1i"/>
    </vehicle>
    <vehicle id="320" depart="320.00">
        <route edges="54o 4i"/>
    </vehicle>
    <vehicle id="321" depart="321.00">
        <route edges="51o 1i 2o 52i 52o 2i 1o"/>
    </vehicle>
    <vehicle id="322" depart="322.00">
        <route edges="53o 3i 4o 54i 54o 4i 3o"/>
    </vehicle>
    <vehicle id="323" depart="323.00">
        <route edges="53o 3i 4o 54i 54o 4i"/>
    </vehicle>
    <vehicle id="324" depart="324.00">
        <route edges="3o"/>
    </vehicle>
    <vehicle id="325" depart="325.00">
        <route edges="2i 1o 51i 51o 1i"/>
    </vehicle>
    <vehicle id="326" depart="326.00">
        <route edges="54o 4i 3o"/>
    </vehicle>
    <vehicle id="329" depart="329.00">
        <route edges="1i 2o 52i 52o 2i 1o"/>
    </vehicle>
    <vehicle id="333" depart="333.00">
        <route edges="52o 2i"/>
    </vehicle>
    <vehicle id="334" depart="334.00">
        <route edges="4i 3o"/>
    </vehicle>
    <vehicle id="335" depart="335.00">
        <route edges="3o 53i"/>
    </vehicle>
    <vehicle id="337" depart="337.00">
        <route edges="4o"/>
    </vehicle>
    <vehicle id="339" depart="339.00">
        <route edges="2i"/>
    </vehicle>
    <vehicle id="341" depart="341.00">
        <route edges="2i 1o 51i 51o 1i"/>
    </vehicle>
    <vehicle id="344" depart="344.00">
        <route edges="2i 1o 51i"/>
    </vehicle>
    <vehicle id="348" depart="348.00">
        <route edges="4o 54i"/>
    </vehicle>
    <vehicle id="349" depart="349.00">
        <route edges="3o 53i 53o 3i 4o 54i 54o 4i"/>
    </vehicle>
    <vehicle id="350" depart="350.00">
        <route edges="4o 54i 54o 4i 3o 53i"/>
    </vehicle>
    <vehicle id="351" depart="351.00">
        <route edges="52o 2i 1o 51i 51o 1i"/>
    </vehicle>
    <vehicle id="352" depart="352.00">
        <route edges="1o 51i 51o 1i 2o"/>
    </vehicle>
    <vehicle id="354" depart="354.00">
        <route edges="2o 52i 52o 2i 1o"/>
    </vehicle>
    <vehicle id="355" depart="355.00">
        <route edges="51o 51i"/>
    </vehicle>
    <vehicle id="356" depart="356.00">
        <route edges="54o 4i"/>
    </vehicle>
    <vehicle id="359" depart="359.00">
        <route edges="2o"/>
    </vehicle>
    <vehicle id="361" depart="361.00">
        <route edges="53o 3i 4o 54i 54o 4i"/>
    </vehicle>
    <vehicle id="362" depart="362.00">
        <route edges="54o 54i"/>
    </vehicle>
    <vehicle id="363" depart="363.00">
        <route edges="51o 1i 2o"/>
    </vehicle>
    <vehicle id="364" depart="364.00">
        <route edges="1i 2o 52i"/>
    </vehicle>
    <vehicle id="365" depart="365.00">
        <route edges="3o 53i 53o 3i 4o"/>
    </vehicle>
    <vehicle id="367" depart="367.00">
        <route edges="4o"/>
    </vehicle>
    <vehicle id="371" depart="371.00">
        <route edges="2o 52i 52o 2i 1o 51i"/>
    </vehicle>
    <vehicle id="376" depart="376.00">
        <route edges="3i 4o 54i 54o 4i"/>
    </vehicle>
    <vehicle id="377" depart="377.00">
        <route edges="54o 4i 3o 53i 53o 3i 4o"/>
    </vehicle>
    <vehicle id="378" depart="378.00">
        <route edges="4i 3o 53i 53o 3i"/>
    </vehicle>
    <vehicle id="381" depart="381.00">
        <route edges="52o 2i"/>
    </vehicle>
    <vehicle id="382" depart="382.00">
        <route edges="4i 3o 53i 53o 3i 4o 54i"/>
    </vehicle>
    <vehicle id="388" depart="388.00">
        <route edges="54o 4i 3o 53i"/>
    </vehicle>
    <vehicle id="394" depart="394.00">
        <route edges="4i 3o 53i 53o 3i"/>
    </vehicle>
    <vehicle id="395" depart="395.00">
        <route edges="54o 4i"/>
    </vehicle>
    <vehicle id="396" depart="396.00">
        <route edges="53o 53i"/>
    </vehicle>
    <vehicle id="397" depart="397.00">
        <route edges="2o 52i"/>
    </vehicle>
    <vehicle id="398" depart="398.00">
        <route edges="3i 4o 54i"/>
    </vehicle>
    <vehicle id="400" depart="400.00">
        <route edges="2o"/>
    </vehicle>
    <vehicle id="401" depart="401.00">
        <route edges="4o 54i"/>
    </vehicle>
    <vehicle id="403" depart="403.00">
        <route edges="4i 3o 53i 53o 3i"/>
    </vehicle>
    <vehicle id="404" depart="404.00">
        <route edges="4i"/>
    </vehicle>
    <vehicle id="406" depart="406.00">
        <route edges="2i 1o 51i"/>
    </vehicle>
    <vehicle id="408" depart="408.00">
        <route edges="52o 2i 1o 51i 51o 1i"/>
    </vehicle>
    <vehicle id="409" depart="409.00">
        <route edges="51o 51i"/>
    </vehicle>
    <vehicle id="412" depart="412.00">
        <route edges="54o 4i 3o"/>
    </vehicle>
    <vehicle id="414" depart="414.00">
        <route edges="4o 54i 54o 4i 3o 53i"/>
    </vehicle>
    <vehicle id="415" depart="415.00">
        <route edges="53o 3i 4o 54i 54o 4i 3o"/>
    </vehicle>
    <vehicle id="416" depart="416.00">
        <route edges="4i 3o"/>
    </vehicle>
    <vehicle id="419" depart="419.00">
        <route edges="3o 53i 53o 3i 4o 54i"/>
    </vehicle>
    <vehicle id="421" depart="421.00">
        <route edges="4o 54i 54o 4i 3o 53i"/>
    </vehicle>
    <vehicle id="422" depart="422.00">
        <route edges="53o 53i"/>
    </vehicle>
    <vehicle id="424" depart="424.00">
        <route edges="51o 1i 2o 52i"/>
    </vehicle>
    <vehicle id="427" depart="427.00">
        <route edges="54o 54i"/>
    </vehicle>
    <vehicle id="430" depart="430.00">
        <route edges="53o 3i 4o 54i 54o 4i 3o"/>
    </vehicle>
    <vehicle id="432" depart="432.00">
        <route edges="1i 2o 52i"/>
    </vehicle>
    <vehicle id="436" depart="436.00">
        <route edges="2i 1o 51i 51o 1i"/>
    </vehicle>
    <vehicle id="437" depart="437.00">
        <route edges="53o 3i 4o"/>
    </vehicle>
    <vehicle id="440" depart="440.00">
        <route edges="2o"/>
    </vehicle>
    <vehicle id="441" depart="441.00">
        <route edges="1i 2o 52i"/>
    </vehicle>
    <vehicle id="444" depart="444.00">
        <route edges="3i 4o"/>
    </vehicle>
    <vehicle id="445" depart="445.00">
        <route edges="4o 54i 54o 4i 3o"/>
    </vehicle>
    <vehicle id="449" depart="449.00">
        <route edges="4i"/>
    </vehicle>
    <vehicle id="451" depart="451.00">
        <route edges="54o 4i 3o 53i 53o 3i 4o"/>
    </vehicle>
    <vehicle id="453" depart="453.00">
        <route edges="51o 51i"/>
    </vehicle>
    <vehicle id="455" depart="455.00">
        <route edges="3o 53i"/>
    </vehicle>
    <vehicle id="456" depart="456.00">
        <route edges="2o 52i"/>
    </vehicle>
    <vehicle id="457" depart="457.00">
        <route edges="4o 54i 54o 4i 3o 53i 53o 3i"/>
    </vehicle>
    <vehicle id="458" depart="458.00">
        <route edges="4o"/>
    </vehicle>
    <vehicle id="459" depart="459.00">
        <route edges="51o 51i"/>
    </vehicle>
    <vehicle id="460" depart="460.00">
        <route edges="4o 54i 54o 4i 3o 53i"/>
    </vehicle>
    <vehicle id="461" depart="461.00">
        <route edges="4o 54i 54o 4i 3o 53i"/>
    </vehicle>
    <vehicle id="463" depart="463.00">
        <route edges="3o 53i 53o 3i 4o 54i 54o 4i"/>
    </vehicle>
    <vehicle id="464" depart="464.00">
        <route edges="51o 1i 2o 52i 52o 2i 1o"/>
    </vehicle>
    <vehicle id="465" depart="465.00">
        <route edges="2o 52i 52o 2i 1o 51i"/>
    </vehicle>
    <vehicle id="466" depart="466.00">
        <route edges="2i 1o"/>
    </vehicle>
    <vehicle id="467" depart="467.00">
        <route edges="4i 3o 53i 53o 3i 4o 54i"/>
    </vehicle>
    <vehicle id="468" depart="468.00">
        <route edges="4i 3o 53i"/>
    </vehicle>
    <vehicle id="469" depart="469.00">
        <route edges="52o 2i 1o 51i 51o 1i 2o"/>
    </vehicle>
    <vehicle id="471" depart="471.00">
        <route edges="52o 2i 1o 51i"/>
    </vehicle>
    <vehicle id="474" depart="474.00">
        <route edges="54o 4i 3o 53i"/>
    </vehicle>
    <vehicle id="482" depart="482.00">
        <route edges="1o 51i 51o 1i 2o 52i 52o 2i"/>
    </vehicle>
    <vehicle id="484" depart="484.00">
        <route edges="4i 3o 53i"/>
    </vehicle>
    <vehicle id="485" depart="485.00">
        <route edges="2i 1o 51i 51o 1i"/>
    </vehicle>
    <vehicle id="492" depart="492.00">
        <route edges="51o 51i"/>
    </vehicle>
    <vehicle id="493" depart="493.00">
        <route edges="54o 4i 3o"/>
    </vehicle>
    <vehicle id="494" depart="494.00">
        <route edges="51o 1i 2o 52i 52o 2i 1o"/>
    </vehicle>
    <vehicle id="496" depart="496.00">
        <route edges="3o 3i"/>
    </vehicle>
    <vehicle id="498" depart="498.00">
        <route edges="3i 4o 54i 54o 4i 3o"/>
    </vehicle>
    <vehicle id="499" depart="499.00">
        <route edges="54o 4i 3o 53i"/>
    </vehicle>
    <vehicle id="500" depart="500.00">
        <route edges="1o 51i"/>
    </vehicle>
    <vehicle id="501" depart="501.00">
        <route edges="4i 3o 53i 53o 3i 4o 54i"/>
    </vehicle>
    <vehicle id="502" depart="502.00">
        <route edges="3i"/>
    </vehicle>
    <vehicle id="503" depart="503.00">
        <route edges="2i 1o"/>
    </vehicle>
    <vehicle id="504" depart="504.00">
        <route edges="53o 3i 4o 54i 54o 4i 3o"/>
    </vehicle>
    <vehicle id="505" depart="505.00">
        <route edges="4o"/>
    </vehicle>
    <vehicle id="507" depart="507.00">
        <route edges="52o 2i"/>
    </vehicle>
    <vehicle id="509" depart="509.00">
        <route edges="1i 2o 52i"/>
    </vehicle>
    <vehicle id="510" depart="510.00">
        <route edges="2i"/>
    </vehicle>
    <vehicle id="514" depart="514.00">
        <route edges="1o"/>
    </vehicle>
    <vehicle id="515" depart="515.00">
        <route edges="2o 2i"/>
    </vehicle>
    <vehicle id="517" depart="517.00">
        <route edges="1i 2o 52i"/>
    </vehicle>
    <vehicle id="518" depart="518.00">
        <route edges="2i 1o 51i 51o 1i 2o"/>
    </vehicle>
    <vehicle id="519" depart="519.00">
        <route edges="2i 1o 51i 51o 1i"/>
    </vehicle>
    <vehicle id="526" depart="526.00">
        <route edges="4i 3o"/>
    </vehicle>
    <vehicle id="528" depart="528.00">
        <route edges="3o 3i"/>
    </vehicle>
    <vehicle id="532" depart="532.00">
        <route edges="1i 2o"/>
    </vehicle>
    <vehicle id="533" depart="533.00">
        <route edges="4o 4i"/>
    </vehicle>
    <vehicle id="535" depart="535.00">
        <route edges="4i 3o"/>
    </vehicle>
    <vehicle id="539" depart="539.00">
        <route edges="51o 1i 2o 52i 52o 2i"/>
    </vehicle>
    <vehicle id="541" depart="541.00">
        <route edges="3i 4o 54i 54o 4i 3o"/>
    </vehicle>
    <vehicle id="543" depart="543.00">
        <route edges="3o 53i 53o 3i 4o"/>
    </vehicle>
    <vehicle id="546" depart="546.00">
        <route edges="52o 2i 1o"/>
    </vehicle>
    <vehicle id="547" depart="547.00">
        <route edges="1o 51i"/>
    </vehicle>
    <vehicle id="549" depart="549.00">
        <route edges="4o 4i"/>
    </vehicle>
    <vehicle id="550" depart="550.00">
        <route edges="2o 52i 52o 2i 1o"/>
    </vehicle>
    <vehicle id="551" depart="551.00">
        <route edges="3i 4o"/>
    </vehicle>
    <vehicle id="554" depart="554.00">
        <route edges="4o 54i 54o 4i 3o 53i 53o 3i"/>
    </vehicle>
    <vehicle id="560" depart="560.00">
        <route edges="53o 3i 4o 54i"/>
    </vehicle>
    <vehicle id="564" depart="564.00">
        <route edges="2o 2i"/>
    </vehicle>
    <vehicle id="565" depart="565.00">
        <route edges="51o 1i 2o"/>
    </vehicle>
    <vehicle id="567" depart="567.00">
        <route edges="53o 3i 4o 54i 54o 4i"/>
    </vehicle>
    <vehicle id="570" depart="570.00">
        <route edges="51o 1i 2o 52i 52o 2i"/>
    </vehicle>
    <vehicle id="571" depart="571.00">
        <route edges="3o 3i"/>
    </vehicle>
    <vehicle id="574" depart="574.00">
        <route edges="1o 1i"/>
    </vehicle>
    <vehicle id="576" depart="576.00">
        <route edges="51o 1i 2o"/>
    </vehicle>
    <vehicle id="577" depart="577.00">
        <route edges="4o 54i 54o 4i 3o"/>
    </vehicle>
    <vehicle id="579" depart="579.00">
        <route edges="52o 2i 1o"/>
    </vehicle>
    <vehicle id="582" depart="582.00">
        <route edges="51o 1i"/>
    </vehicle>
    <vehicle id="583" depart="583.00">
        <route edges="3i 4o"/>
    </vehicle>
    <vehicle id="584" depart="584.00">
        <route edges="1i 2o"/>
    </vehicle>
    <vehicle id="585" depart="585.00">
        <route edges="2i 1o"/>
    </vehicle>
    <vehicle id="586" depart="586.00">
        <route edges="2o"/>
    </vehicle>
    <vehicle id="587" depart="587.00">
        <route edges="1i 2o 52i 52o 2i 1o 51i"/>
    </vehicle>
    <vehicle id="592" depart="592.00">
        <route edges="1i"/>
    </vehicle>
    <vehicle id="593" depart="593.00">
        <route edges="54o 4i 3o 53i"/>
    </vehicle>
    <vehicle id="594" depart="594.00">
        <route edges="4i"/>
    </vehicle>
    <vehicle id="596" depart="596.00">
        <route edges="1o 1i"/>
    </vehicle>
    <vehicle id="597" depart="597.00">
        <route edges="2o 52i"/>
    </vehicle>
    <vehicle id="601" depart="601.00">
        <route edges="4o 4i"/>
    </vehicle>
    <vehicle id="606" depart="606.00">
        <route edges="53o 3i"/>
    </vehicle>
    <vehicle id="607" depart="607.00">
        <route edges="51o 1i 2o 52i"/>
    </vehicle>
    <vehicle id="608" depart="608.00">
        <route edges="52o 2i"/>
    </vehicle>
    <vehicle id="609" depart="609.00">
        <route edges="1o 51i 51o 1i 2o 52i 52o 2i"/>
    </vehicle>
    <vehicle id="613" depart="613.00">
        <route edges="52o 52i"/>
    </vehicle>
    <vehicle id="614" depart="614.00">
        <route edges="3o 53i 53o 3i 4o 54i"/>
    </vehicle>
    <vehicle id="615" depart="615.00">
        <route edges="4i 3o 53i 53o 3i 4o"/>
    </vehicle>
    <vehicle id="616" depart="616.00">
        <route edges="4o 54i 54o 4i 3o 53i"/>
    </vehicle>
    <vehicle id="619" depart="619.00">
        <route edges="2o"/>
    </vehicle>
    <vehicle id="622" depart="622.00">
        <route edges="1i 2o 52i"/>
    </vehicle>
    <vehicle id="624" depart="624.00">
        <route edges="53o 3i 4o"/>
    </vehicle>
    <vehicle id="625" depart="625.00">
        <route edges="4i 3o"/>
    </vehicle>