<?xml version="1.0" encoding="UTF-8"?>

<!-- generated on 2022-06-11 14:27:38 by Eclipse SUMO netedit Version 1.13.0
-->

<additional xmlns:xsi="http://www.w3.org/2001/XMLSchema-instance" xsi:noNamespaceSchemaLocation="http://sumo.dlr.de/xsd/additional_file.xsd">
    <!-- StoppingPlaces -->
    <parkingArea id="pa_0" lane="-105857812#4_0" startPos="193.79" endPos="203.79">
        <space x="11060.87" y="12000.08"/>
        <space x="11065.53" y="12000.37"/>
        <space x="11069.46" y="12000.37"/>
        <space x="11072.95" y="12000.37"/>
        <space x="11076.88" y="12000.81"/>
        <space x="11080.66" y="12000.66"/>
        <space x="11084.15" y="12000.81"/>
        <space x="11087.93" y="12000.81"/>
        <space x="11091.72" y="12000.95"/>
        <space x="11095.35" y="12000.95"/>
        <space x="11061.02" y="11992.37"/>
        <space x="11064.95" y="11992.51"/>
        <space x="11068.73" y="11992.66"/>
        <space x="11072.51" y="11992.95"/>
        <space x="11076.29" y="11992.95"/>
        <space x="11080.22" y="11992.80"/>
        <space x="11084.01" y="11992.80"/>
        <space x="11088.08" y="11993.10"/>
        <space x="11091.72" y="11993.10"/>
        <space x="11095.64" y="11992.80"/>
        <space x="11060.29" y="11984.51"/>
        <space x="11064.36" y="11984.51"/>
        <space x="11068.15" y="11984.37"/>
        <space x="11072.22" y="11984.51"/>
        <space x="11076.73" y="11984.08"/>
        <space x="11080.08" y="11984.95"/>
        <space x="11083.42" y="11985.24"/>
        <space x="11088.08" y="11985.53"/>
        <space x="11091.86" y="11984.80"/>
        <space x="11095.79" y="11985.09"/>
        <space x="11060.15" y="11976.80"/>
        <space x="11064.36" y="11976.80"/>
        <space x="11068.15" y="11976.95"/>
        <space x="11072.22" y="11976.80"/>
        <space x="11076.00" y="11975.78"/>
        <space x="11079.50" y="11976.07"/>
        <space x="11083.13" y="11976.36"/>
        <space x="11087.79" y="11976.22"/>
        <space x="11092.88" y="11977.67"/>
        <space x="11096.08" y="11977.09"/>
        <space x="11060.00" y="11967.05"/>
        <space x="11064.07" y="11967.20"/>
        <space x="11068.29" y="11967.34"/>
        <space x="11072.22" y="11967.20"/>
        <space x="11076.44" y="11967.20"/>
        <space x="11080.37" y="11967.05"/>
        <space x="11084.30" y="11967.05"/>
        <space x="11088.08" y="11967.05"/>
        <space x="11092.15" y="11967.49"/>
        <space x="11096.23" y="11967.78"/>
        <space x="11099.28" y="12002.70"/>
        <space x="11102.77" y="12001.97"/>
        <space x="11106.27" y="12001.82"/>
        <space x="11109.76" y="12001.82"/>
        <space x="11113.83" y="12001.97"/>
        <space x="11117.90" y="12002.26"/>
        <space x="11121.10" y="12002.26"/>
        <space x="11124.74" y="12002.26"/>
        <space x="11127.80" y="12002.41"/>
        <space x="11132.31" y="12002.41"/>
        <space x="11098.94" y="11993.70"/>
        <space x="11102.82" y="11993.41"/>
        <space x="11106.20" y="11993.70"/>
        <space x="11109.77" y="11993.80"/>
        <space x="11113.65" y="11994.00"/>
        <space x="11117.92" y="11994.20"/>
        <space x="11121.00" y="11994.40"/>
        <space x="11125.27" y="11994.50"/>
        <space x="11129.25" y="11994.70"/>
        <space x="11132.83" y="11994.40"/>
        <space x="11099.24" y="11986.05"/>
        <space x="11102.72" y="11986.05"/>
        <space x="11106.49" y="11985.85"/>
        <space x="11110.27" y="11985.95"/>
        <space x="11114.24" y="11986.35"/>
        <space x="11119.01" y="11986.15"/>
        <space x="11122.09" y="11986.15"/>
        <space x="11125.77" y="11986.05"/>
        <space x="11129.45" y="11986.65"/>
        <space x="11133.42" y="11986.65"/>
        <space x="11099.54" y="11977.71"/>
        <space x="11103.51" y="11977.90"/>
        <space x="11106.89" y="11978.00"/>
        <space x="11110.87" y="11977.90"/>
        <space x="11114.74" y="11978.20"/>
        <space x="11119.11" y="11978.30"/>
        <space x="11122.29" y="11978.40"/>
        <space x="11125.67" y="11978.40"/>
        <space x="11130.24" y="11978.10"/>
        <space x="11135.11" y="11978.00"/>
        <space x="11099.74" y="11968.96"/>
        <space x="11104.01" y="11969.16"/>
        <space x="11107.29" y="11969.16"/>
        <space x="11110.77" y="11969.16"/>
        <space x="11114.64" y="11969.46"/>
        <space x="11119.01" y="11969.66"/>
        <space x="11123.29" y="11969.86"/>
        <space x="11125.97" y="11969.86"/>
        <space x="11130.34" y="11969.86"/>
        <space x="11133.72" y="11969.96"/>
    </parkingArea>
    <parkingArea id="pa_1" lane="105573433#1_0" startPos="235.70" endPos="245.70">
        <space x="10762.12" y="12047.12"/>
        <space x="10766.45" y="12047.61"/>
        <space x="10770.42" y="12047.12"/>
        <space x="10774.51" y="12047.00"/>
        <space x="10778.71" y="12047.00"/>
        <space x="10783.64" y="12047.12"/>
        <space x="10788.57" y="12046.76"/>
        <space x="10791.94" y="12046.76"/>
        <space x="10796.15" y="12047.49"/>
        <space x="10800.24" y="12047.36"/>
        <space x="10804.32" y="12047.36"/>
        <space x="10808.89" y="12047.49"/>
        <space x="10813.22" y="12047.36"/>
        <space x="10817.31" y="12047.00"/>
        <space x="10821.52" y="12047.24"/>
        <space x="10768.98" y="12036.66"/>
        <space x="10772.22" y="12036.78"/>
        <space x="10776.19" y="12036.78"/>
        <space x="10780.04" y="12036.66"/>
        <space x="10784.37" y="12036.66"/>
        <space x="10787.97" y="12036.66"/>
        <space x="10791.46" y="12036.66"/>
        <space x="10795.67" y="12036.78"/>
        <space x="10799.15" y="12036.78"/>
        <space x="10803.24" y="12036.78"/>
        <space x="10808.41" y="12036.78"/>
        <space x="10812.02" y="12037.14"/>
        <space x="10815.99" y="12036.54"/>
        <space x="10819.96" y="12036.90"/>
        <space x="10824.16" y="12036.78"/>
        <space x="10768.49" y="12027.89"/>
        <space x="10772.46" y="12028.13"/>
        <space x="10776.55" y="12028.13"/>
        <space x="10780.76" y="12028.13"/>
        <space x="10785.69" y="12027.89"/>
        <space x="10789.30" y="12028.01"/>
        <space x="10792.78" y="12028.01"/>
        <space x="10796.39" y="12028.01"/>
        <space x="10799.40" y="12027.89"/>
        <space x="10803.96" y="12028.85"/>
        <space x="10808.89" y="12028.37"/>
        <space x="10812.26" y="12028.49"/>
        <space x="10815.63" y="12028.49"/>
        <space x="10819.59" y="12028.49"/>
        <space x="10822.84" y="12028.49"/>
        <space x="10770.18" y="12018.63"/>
        <space x="10774.39" y="12019.35"/>
        <space x="10778.47" y="12019.11"/>
        <space x="10782.56" y="12018.87"/>
        <space x="10787.97" y="12018.99"/>
        <space x="10791.82" y="12018.63"/>
        <space x="10794.59" y="12018.51"/>
        <space x="10797.95" y="12018.39"/>
        <space x="10802.04" y="12018.39"/>
        <space x="10805.77" y="12018.27"/>
        <space x="10809.62" y="12018.39"/>
        <space x="10813.58" y="12018.87"/>
        <space x="10818.03" y="12018.75"/>
        <space x="10822.72" y="12019.11"/>
        <space x="10826.21" y="12018.75"/>
        <space x="10830.66" y="12018.99"/>
        <space x="10762.00" y="12057.22"/>
        <space x="10766.21" y="12056.98"/>
        <space x="10770.18" y="12056.86"/>
        <space x="10773.42" y="12056.74"/>
        <space x="10776.79" y="12056.62"/>
        <space x="10780.52" y="12056.50"/>
        <space x="10784.25" y="12056.50"/>
        <space x="10787.85" y="12056.74"/>
        <space x="10792.06" y="12056.86"/>
        <space x="10795.67" y="12056.86"/>
        <space x="10800.12" y="12056.98"/>
        <space x="10804.81" y="12056.98"/>
        <space x="10808.53" y="12057.10"/>
        <space x="10811.90" y="12057.10"/>
        <space x="10815.63" y="12057.10"/>
    </parkingArea>
    <parkingArea id="pa_2" lane="-438319551_0" startPos="52.00" endPos="62.00">
        <space x="10520.95" y="12223.96"/>
        <space x="10526.19" y="12224.25"/>
        <space x="10530.85" y="12224.68"/>
        <space x="10535.94" y="12224.68"/>
        <space x="10540.59" y="12225.12"/>
        <space x="10545.39" y="12225.12"/>
        <space x="10549.18" y="12225.12"/>
        <space x="10553.11" y="12225.12"/>
        <space x="10557.18" y="12224.98"/>
        <space x="10561.11" y="12224.98"/>
        <space x="10520.23" y="12213.92"/>
        <space x="10524.44" y="12213.92"/>
        <space x="10529.83" y="12214.06"/>
        <space x="10534.19" y="12214.50"/>
        <space x="10538.56" y="12214.50"/>
        <space x="10542.63" y="12214.50"/>
        <space x="10547.87" y="12214.50"/>
        <space x="10553.11" y="12214.50"/>
        <space x="10557.62" y="12214.50"/>
        <space x="10565.04" y="12214.50"/>
        <space x="10521.68" y="12206.06"/>
        <space x="10527.50" y="12206.21"/>
        <space x="10531.86" y="12205.63"/>
        <space x="10536.37" y="12205.34"/>
        <space x="10542.49" y="12204.46"/>
        <space x="10547.58" y="12206.21"/>
        <space x="10552.23" y="12205.92"/>
        <space x="10557.76" y="12205.77"/>
        <space x="10563.29" y="12205.63"/>
        <space x="10567.36" y="12205.77"/>
        <space x="10520.81" y="12196.75"/>
        <space x="10527.94" y="12197.19"/>
        <space x="10532.16" y="12196.75"/>
        <space x="10536.52" y="12196.90"/>
        <space x="10542.19" y="12197.04"/>
        <space x="10546.85" y="12197.04"/>
        <space x="10552.67" y="12196.61"/>
        <space x="10559.22" y="12196.32"/>
        <space x="10565.04" y="12196.02"/>
        <space x="10570.13" y="12195.73"/>
        <space x="10519.93" y="12186.86"/>
        <space x="10524.88" y="12187.29"/>
        <space x="10530.56" y="12186.86"/>
        <space x="10534.34" y="12186.71"/>
        <space x="10538.27" y="12186.71"/>
        <space x="10543.36" y="12186.71"/>
        <space x="10547.14" y="12186.71"/>
        <space x="10553.25" y="12186.57"/>
        <space x="10557.76" y="12186.57"/>
        <space x="10563.00" y="12186.57"/>
    </parkingArea>
    <parkingArea id="pa_3" lane="236665017#0_0" startPos="110.34" endPos="120.34">
        <space x="10691.86" y="10113.41"/>
        <space x="10699.56" y="10113.14"/>
        <space x="10704.08" y="10113.14"/>
        <space x="10707.80" y="10113.14"/>
        <space x="10713.91" y="10113.14"/>
        <space x="10717.89" y="10113.14"/>
        <space x="10721.61" y="10113.14"/>
        <space x="10726.39" y="10112.61"/>
        <space x="10731.17" y="10112.61"/>
        <space x="10738.08" y="10112.61"/>
        <space x="10744.46" y="10112.61"/>
        <space x="10748.18" y="10112.61"/>
        <space x="10751.36" y="10112.35"/>
        <space x="10758.80" y="10113.41"/>
        <space x="10762.79" y="10113.41"/>
        <space x="10765.97" y="10113.41"/>
        <space x="10771.82" y="10113.41"/>
        <space x="10778.73" y="10112.61"/>
        <space x="10784.30" y="10112.61"/>
        <space x="10784.57" y="10110.22"/>
        <space x="10776.60" y="10109.69"/>
        <space x="10772.08" y="10107.03"/>
        <space x="10761.46" y="10103.85"/>
        <space x="10748.18" y="10103.58"/>
        <space x="10740.74" y="10103.58"/>
        <space x="10733.30" y="10103.58"/>
        <space x="10729.58" y="10103.58"/>
        <space x="10723.20" y="10103.58"/>
        <space x="10712.31" y="10103.05"/>
        <space x="10705.67" y="10103.05"/>
        <space x="10701.95" y="10103.05"/>
        <space x="10695.31" y="10103.05"/>
        <space x="10689.20" y="10104.38"/>
        <space x="10717.63" y="10103.31"/>
        <space x="10750.83" y="10105.71"/>
        <space x="10754.29" y="10105.44"/>
        <space x="10767.57" y="10103.58"/>
        <space x="10774.48" y="10100.13"/>
        <space x="10780.05" y="10099.06"/>
        <space x="10784.84" y="10098.80"/>
        <space x="10784.04" y="10094.81"/>
        <space x="10775.01" y="10094.55"/>
        <space x="10770.76" y="10094.55"/>
        <space x="10762.26" y="10094.55"/>
        <space x="10756.68" y="10094.55"/>
        <space x="10752.43" y="10094.55"/>
        <space x="10748.44" y="10094.55"/>
        <space x="10744.46" y="10094.55"/>
        <space x="10739.94" y="10094.55"/>
        <space x="10729.31" y="10094.81"/>
        <space x="10725.59" y="10094.81"/>
        <space x="10719.75" y="10094.81"/>
        <space x="10714.44" y="10095.34"/>
        <space x="10711.78" y="10095.34"/>
        <space x="10706.47" y="10095.34"/>
        <space x="10700.09" y="10095.34"/>
        <space x="10694.51" y="10094.55"/>
        <space x="10734.10" y="10094.81"/>
        <space x="10692.12" y="10086.05"/>
        <space x="10696.11" y="10086.05"/>
        <space x="10699.29" y="10086.05"/>
        <space x="10703.01" y="10086.05"/>
        <space x="10707.80" y="10086.05"/>
        <space x="10710.72" y="10086.05"/>
        <space x="10715.23" y="10086.05"/>
        <space x="10722.14" y="10086.05"/>
        <space x="10726.13" y="10085.78"/>
        <space x="10730.11" y="10085.52"/>
        <space x="10736.22" y="10085.78"/>
        <space x="10738.61" y="10085.78"/>
        <space x="10741.80" y="10085.52"/>
        <space x="10750.83" y="10085.52"/>
        <space x="10756.94" y="10085.52"/>
        <space x="10761.72" y="10085.52"/>
        <space x="10768.37" y="10085.52"/>
        <space x="10776.60" y="10084.72"/>
        <space x="10782.45" y="10084.72"/>
        <space x="10789.62" y="10084.45"/>
        <space x="10772.08" y="10085.25"/>
        <space x="10689.20" y="10080.73"/>
        <space x="10693.18" y="10079.67"/>
        <space x="10696.64" y="10077.55"/>
        <space x="10703.55" y="10076.22"/>
        <space x="10714.44" y="10075.15"/>
        <space x="10724.27" y="10075.15"/>
        <space x="10733.56" y="10075.15"/>
        <space x="10742.86" y="10075.15"/>
        <space x="10750.30" y="10075.15"/>
        <space x="10760.13" y="10075.15"/>
        <space x="10767.04" y="10075.15"/>
        <space x="10770.76" y="10075.15"/>
        <space x="10778.19" y="10075.15"/>
        <space x="10788.56" y="10074.62"/>
        <space x="10792.54" y="10074.36"/>
        <space x="10781.91" y="10074.89"/>
        <space x="10755.08" y="10074.89"/>
        <space x="10738.61" y="10075.69"/>
        <space x="10728.52" y="10077.01"/>
        <space x="10719.48" y="10075.69"/>
        <space x="10709.92" y="10076.22"/>
        <space x="10687.07" y="10069.31"/>
        <space x="10692.65" y="10069.31"/>
        <space x="10697.70" y="10069.04"/>
        <space x="10702.23" y="10067.42"/>
        <space x="10706.18" y="10067.64"/>
        <space x="10708.82" y="10067.64"/>
        <space x="10712.77" y="10067.64"/>
        <space x="10718.48" y="10067.20"/>
        <space x="10722.21" y="10067.20"/>
        <space x="10725.94" y="10067.20"/>
        <space x="10729.45" y="10067.20"/>
        <space x="10734.28" y="10066.98"/>
        <space x="10741.09" y="10066.55"/>
        <space x="10746.58" y="10066.55"/>
        <space x="10751.85" y="10066.33"/>
        <space x="10757.56" y="10066.33"/>
        <space x="10760.63" y="10066.11"/>
        <space x="10765.46" y="10066.11"/>
        <space x="10772.70" y="10065.45"/>
        <space x="10769.41" y="10065.89"/>
        <space x="10777.75" y="10065.67"/>
        <space x="10781.93" y="10065.67"/>
        <space x="10786.10" y="10065.67"/>
        <space x="10790.93" y="10065.45"/>
        <space x="10795.54" y="10065.23"/>
        <space x="10687.08" y="10053.59"/>
        <space x="10693.45" y="10053.59"/>
        <space x="10696.08" y="10053.59"/>
        <space x="10699.38" y="10053.59"/>
        <space x="10702.01" y="10053.59"/>
        <space x="10714.49" y="10060.72"/>
        <space x="10713.59" y="10056.67"/>
        <space x="10712.09" y="10052.17"/>
        <space x="10707.14" y="10052.92"/>
        <space x="10718.99" y="10052.47"/>
        <space x="10724.54" y="10053.07"/>
        <space x="10727.69" y="10053.07"/>
        <space x="10733.98" y="10053.07"/>
        <space x="10740.88" y="10053.52"/>
        <space x="10745.38" y="10053.37"/>
        <space x="10751.53" y="10053.22"/>
        <space x="10757.38" y="10053.22"/>
        <space x="10760.53" y="10053.22"/>
        <space x="10765.17" y="10053.22"/>
        <space x="10770.27" y="10053.22"/>
        <space x="10775.07" y="10053.22"/>
        <space x="10779.72" y="10053.22"/>
        <space x="10784.67" y="10053.22"/>
        <space x="10790.37" y="10053.22"/>
        <space x="10796.37" y="10052.47"/>
        <space x="10803.56" y="10052.32"/>
        <space x="10685.85" y="10042.87"/>
        <space x="10690.35" y="10042.57"/>
        <space x="10693.20" y="10042.12"/>
        <space x="10696.49" y="10042.12"/>
        <space x="10700.24" y="10041.97"/>
        <space x="10704.59" y="10041.97"/>
        <space x="10709.39" y="10041.82"/>
        <space x="10714.34" y="10041.82"/>
        <space x="10716.44" y="10041.82"/>
        <space x="10723.79" y="10041.82"/>
        <space x="10729.49" y="10041.97"/>
        <space x="10733.98" y="10041.97"/>
        <space x="10736.38" y="10041.97"/>
        <space x="10740.73" y="10041.97"/>
        <space x="10745.38" y="10042.42"/>
        <space x="10749.28" y="10042.42"/>
        <space x="10755.28" y="10042.42"/>
        <space x="10761.58" y="10042.27"/>
        <space x="10765.02" y="10042.12"/>
        <space x="10768.77" y="10042.12"/>
        <space x="10772.82" y="10042.27"/>
        <space x="10776.12" y="10042.27"/>
        <space x="10780.02" y="10041.67"/>
        <space x="10783.62" y="10041.52"/>
        <space x="10789.77" y="10041.07"/>
        <space x="10792.92" y="10040.92"/>
        <space x="10795.77" y="10040.92"/>
        <space x="10804.16" y="10041.37"/>
        <space x="10800.26" y="10042.42"/>
        <space x="10686.60" y="10034.47"/>
        <space x="10691.85" y="10034.32"/>
        <space x="10695.75" y="10034.32"/>
        <space x="10699.49" y="10034.32"/>
        <space x="10702.79" y="10034.32"/>
        <space x="10707.44" y="10033.87"/>
        <space x="10712.84" y="10033.87"/>
        <space x="10716.74" y="10033.57"/>
        <space x="10720.49" y="10033.57"/>
        <space x="10725.89" y="10033.42"/>
        <space x="10732.03" y="10033.27"/>
        <space x="10736.08" y="10033.27"/>
        <space x="10738.18" y="10033.27"/>
        <space x="10742.68" y="10033.27"/>
        <space x="10747.63" y="10033.27"/>
        <space x="10751.08" y="10032.97"/>
        <space x="10755.88" y="10033.12"/>
        <space x="10763.53" y="10032.97"/>
        <space x="10766.67" y="10032.97"/>
        <space x="10771.02" y="10032.97"/>
        <space x="10760.08" y="10033.42"/>
        <space x="10774.62" y="10033.72"/>
        <space x="10780.02" y="10033.57"/>
        <space x="10783.17" y="10033.42"/>
        <space x="10787.82" y="10033.42"/>
        <space x="10792.17" y="10033.42"/>
        <space x="10795.77" y="10033.42"/>
        <space x="10801.46" y="10033.42"/>
        <space x="10808.66" y="10033.12"/>
        <space x="10808.81" y="10032.82"/>
        <space x="10804.67" y="10068.76"/>
        <space x="10803.35" y="10082.95"/>
        <space x="10796.91" y="10092.84"/>
        <space x="10795.76" y="10088.89"/>
        <space x="10798.89" y="10078.49"/>
        <space x="10798.89" y="10074.53"/>
        <space x="10813.41" y="10074.53"/>
        <space x="10811.92" y="10085.75"/>
        <space x="10807.14" y="10097.46"/>
        <space x="10813.41" y="10096.64"/>
        <space x="10816.21" y="10089.05"/>
        <space x="10819.68" y="10084.93"/>
        <space x="10819.68" y="10076.02"/>
        <space x="10819.02" y="10069.75"/>
        <space x="10813.41" y="10065.63"/>
        <space x="10809.94" y="10062.82"/>
        <space x="10818.52" y="10055.07"/>
        <space x="10825.28" y="10057.05"/>
        <space x="10809.78" y="10051.11"/>
        <space x="10819.18" y="10047.48"/>
        <space x="10820.50" y="10038.58"/>
        <space x="10818.52" y="10038.58"/>
        <space x="10811.26" y="10044.68"/>
        <space x="10813.57" y="10036.76"/>
        <space x="10819.02" y="10028.18"/>
        <space x="10827.92" y="10035.28"/>
        <space x="10826.77" y="10045.50"/>
        <space x="10831.72" y="10050.12"/>
        <space x="10829.90" y="10059.36"/>
        <space x="10825.78" y="10074.20"/>
        <space x="10823.96" y="10070.41"/>
        <space x="10833.20" y="10072.56"/>
        <space x="10828.42" y="10084.10"/>
        <space x="10822.48" y="10094.99"/>
        <space x="10827.43" y="10097.63"/>
        <space x="10830.23" y="10095.81"/>
        <space x="10834.19" y="10089.05"/>
        <space x="10838.15" y="10080.64"/>
        <space x="10838.15" y="10074.04"/>
        <space x="10838.81" y="10063.48"/>
        <space x="10838.81" y="10054.91"/>
        <space x="10826.60" y="10002.45"/>
        <space x="10816.05" y="10003.28"/>
        <space x="10806.15" y="10004.43"/>
    </parkingArea>
    <!-- Detectors -->
    <e2Detector id="e2_0" lane="105857815#1_0" pos="36.91" length="134.50" freq="100.00" file="e2_1.xml" friendlyPos="1"/>
    <e2Detector id="e2_1" lane="231786683#0_0" pos="5.53" length="77.00" freq="300.00" file="e2_0.xml" friendlyPos="1"/>
    <e2Detector id="e2_2" lane="105857799#2_0" pos="183.12" length="122.00" freq="300.00" file="e2_2.xml" friendlyPos="1"/>
    <!-- Other additionals -->
    <rerouter id="re1" edges="-105857812#4 105573433#1 -438319551" pos="11056.65,12156.75">
        <interval begin="0.00" end="3600.00">
            <parkingAreaReroute id="pa_0"/>
            <parkingAreaReroute id="pa_1"/>
            <parkingAreaReroute id="pa_2"/>
            <parkingAreaReroute id="pa_3"/>
        </interval>
    </rerouter>
</additional>
