<?xml version="1.0" encoding="UTF-8"?>

<!-- generated on 2022-05-28 12:09:36 by Eclipse SUMO netconvert Version 1.13.0
<configuration xmlns:xsi="http://www.w3.org/2001/XMLSchema-instance" xsi:noNamespaceSchemaLocation="http://sumo.dlr.de/xsd/netconvertConfiguration.xsd">

    <input>
        <node-files value="net.nod.xml"/>
        <edge-files value="net.edg.xml"/>
    </input>

    <output>
        <output-file value="map.net.xml"/>
    </output>

    <report>
        <aggregate-warnings value="5"/>
    </report>

</configuration>
-->

<net version="1.9" junctionCornerDetail="5" limitTurnSpeed="5.50" xmlns:xsi="http://www.w3.org/2001/XMLSchema-instance" xsi:noNamespaceSchemaLocation="http://sumo.dlr.de/xsd/net_file.xsd">

    <location netOffset="50.00,50.00" convBoundary="0.00,0.00,100.00,100.00" origBoundary="-50.00,-50.00,50.00,50.00" projParameter="!"/>

    <edge id=":nd0_0" function="internal">
        <lane id=":nd0_0_0" index="0" speed="6.51" length="9.03" shape="42.01,63.59 41.65,61.14 40.60,59.40 38.85,58.34 36.40,57.99"/>
    </edge>
    <edge id=":nd0_1" function="internal">
        <lane id=":nd0_1_0" index="0" speed="13.89" length="27.19" shape="42.01,63.59 42.01,36.40"/>
        <lane id=":nd0_1_1" index="1" speed="13.89" length="27.19" shape="45.21,63.59 45.21,36.40"/>
        <lane id=":nd0_1_2" index="2" speed="13.89" length="27.19" shape="48.41,63.60 48.41,36.40"/>
    </edge>
    <edge id=":nd0_4" function="internal">
        <lane id=":nd0_4_0" index="0" speed="10.36" length="24.50" shape="48.41,63.60 49.35,56.95 52.20,52.20 56.95,49.35 63.60,48.41"/>
    </edge>
    <edge id=":nd0_5" function="internal">
        <lane id=":nd0_5_0" index="0" speed="3.65" length="4.66" shape="48.41,63.60 49.20,62.40 50.00,62.00 50.80,62.40 51.59,63.60"/>
    </edge>
    <edge id=":nd0_6" function="internal">
        <lane id=":nd0_6_0" index="0" speed="6.51" length="9.03" shape="63.59,57.99 61.14,58.35 59.40,59.40 58.34,61.15 57.99,63.60"/>
    </edge>
    <edge id=":nd0_7" function="internal">
        <lane id=":nd0_7_0" index="0" speed="13.89" length="27.19" shape="63.59,57.99 36.40,57.99"/>
        <lane id=":nd0_7_1" index="1" speed="13.89" length="27.19" shape="63.59,54.79 36.40,54.79"/>
        <lane id=":nd0_7_2" index="2" speed="13.89" length="27.19" shape="63.60,51.59 36.40,51.59"/>
    </edge>
    <edge id=":nd0_10" function="internal">
        <lane id=":nd0_10_0" index="0" speed="10.36" length="4.94" shape="63.60,51.59 58.70,50.90"/>
    </edge>
    <edge id=":nd0_11" function="internal">
        <lane id=":nd0_11_0" index="0" speed="3.65" length="1.44" shape="63.60,51.59 62.40,50.80"/>
    </edge>
    <edge id=":nd0_24" function="internal">
        <lane id=":nd0_24_0" index="0" speed="10.36" length="19.56" shape="58.70,50.90 56.95,50.65 52.20,47.80 49.35,43.05 48.41,36.40"/>
    </edge>
    <edge id=":nd0_25" function="internal">
        <lane id=":nd0_25_0" index="0" speed="3.65" length="3.22" shape="62.40,50.80 62.00,50.00 62.40,49.20 63.60,48.41"/>
    </edge>
    <edge id=":nd0_12" function="internal">
        <lane id=":nd0_12_0" index="0" speed="6.51" length="9.03" shape="57.99,36.41 58.35,38.86 59.40,40.60 61.15,41.66 63.60,42.01"/>
    </edge>
    <edge id=":nd0_13" function="internal">
        <lane id=":nd0_13_0" index="0" speed="13.89" length="27.19" shape="57.99,36.41 57.99,63.60"/>
        <lane id=":nd0_13_1" index="1" speed="13.89" length="27.19" shape="54.79,36.41 54.79,63.60"/>
        <lane id=":nd0_13_2" index="2" speed="13.89" length="27.19" shape="51.59,36.40 51.59,63.60"/>
    </edge>
    <edge id=":nd0_16" function="internal">
        <lane id=":nd0_16_0" index="0" speed="10.36" length="24.50" shape="51.59,36.40 50.65,43.05 47.80,47.80 43.05,50.65 36.40,51.59"/>
    </edge>
    <edge id=":nd0_17" function="internal">
        <lane id=":nd0_17_0" index="0" speed="3.65" length="4.66" shape="51.59,36.40 50.80,37.60 50.00,38.00 49.20,37.60 48.41,36.40"/>
    </edge>
    <edge id=":nd0_18" function="internal">
        <lane id=":nd0_18_0" index="0" speed="6.51" length="9.03" shape="36.41,42.01 38.86,41.65 40.60,40.60 41.66,38.85 42.01,36.40"/>
    </edge>
    <edge id=":nd0_19" function="internal">
        <lane id=":nd0_19_0" index="0" speed="13.89" length="27.19" shape="36.41,42.01 63.60,42.01"/>
        <lane id=":nd0_19_1" index="1" speed="13.89" length="27.19" shape="36.41,45.21 63.60,45.21"/>
        <lane id=":nd0_19_2" index="2" speed="13.89" length="27.19" shape="36.40,48.41 63.60,48.41"/>
    </edge>
    <edge id=":nd0_22" function="internal">
        <lane id=":nd0_22_0" index="0" speed="10.36" length="4.94" shape="36.40,48.41 41.30,49.10"/>
    </edge>
    <edge id=":nd0_23" function="internal">
        <lane id=":nd0_23_0" index="0" speed="3.65" length="1.44" shape="36.40,48.41 37.60,49.20"/>
    </edge>
    <edge id=":nd0_26" function="internal">
        <lane id=":nd0_26_0" index="0" speed="10.36" length="19.56" shape="41.30,49.10 43.05,49.35 47.80,52.20 50.65,56.95 51.59,63.60"/>
    </edge>
    <edge id=":nd0_27" function="internal">
        <lane id=":nd0_27_0" index="0" speed="3.65" length="3.22" shape="37.60,49.20 38.00,50.00 37.60,50.80 36.40,51.59"/>
    </edge>
    <edge id=":nd1_0" function="internal">
        <lane id=":nd1_0_0" index="0" speed="13.89" length="27.16" shape="63.57,107.99 36.41,107.99"/>
        <lane id=":nd1_0_1" index="1" speed="13.89" length="27.16" shape="63.58,104.79 36.41,104.79"/>
        <lane id=":nd1_0_2" index="2" speed="13.89" length="27.16" shape="63.58,101.59 36.41,101.59"/>
    </edge>
    <edge id=":nd1_3" function="internal">
        <lane id=":nd1_3_0" index="0" speed="10.88" length="5.93" shape="63.58,101.59 57.69,100.90"/>
        <lane id=":nd1_3_1" index="1" speed="10.36" length="4.93" shape="63.58,101.59 58.70,100.90"/>
    </edge>
    <edge id=":nd1_5" function="internal">
        <lane id=":nd1_5_0" index="0" speed="3.65" length="1.44" shape="63.58,101.59 62.38,100.80"/>
    </edge>
    <edge id=":nd1_15" function="internal">
        <lane id=":nd1_15_0" index="0" speed="10.88" length="21.17" shape="57.69,100.90 55.55,100.65 49.81,97.80 46.37,93.05 45.22,86.40"/>
    </edge>
    <edge id=":nd1_16" function="internal">
        <lane id=":nd1_16_0" index="0" speed="10.36" length="19.55" shape="58.70,100.90 56.95,100.65 52.21,97.80 49.37,93.05 48.42,86.40"/>
    </edge>
    <edge id=":nd1_17" function="internal">
        <lane id=":nd1_17_0" index="0" speed="3.65" length="3.22" shape="62.38,100.80 61.98,100.00 62.38,99.20 63.58,98.41"/>
    </edge>
    <edge id=":nd1_6" function="internal">
        <lane id=":nd1_6_0" index="0" speed="6.51" length="9.04" shape="57.98,86.40 58.33,88.85 59.38,90.60 61.13,91.65 63.58,92.01"/>
    </edge>
    <edge id=":nd1_7" function="internal">
        <lane id=":nd1_7_0" index="0" speed="11.36" length="29.65" shape="54.78,86.40 53.63,94.45 50.19,100.20 44.45,103.65 36.41,104.79"/>
        <lane id=":nd1_7_1" index="1" speed="10.36" length="24.49" shape="51.58,86.40 50.63,93.05 47.79,97.80 43.05,100.65 36.41,101.59"/>
    </edge>
    <edge id=":nd1_9" function="internal">
        <lane id=":nd1_9_0" index="0" speed="3.64" length="4.63" shape="51.58,86.40 50.79,87.59 50.00,87.98 49.21,87.59 48.42,86.40"/>
    </edge>
    <edge id=":nd1_10" function="internal">
        <lane id=":nd1_10_0" index="0" speed="6.51" length="9.03" shape="36.42,92.01 38.87,91.65 40.62,90.60 41.67,88.85 42.02,86.40"/>
    </edge>
    <edge id=":nd1_11" function="internal">
        <lane id=":nd1_11_0" index="0" speed="13.89" length="27.16" shape="36.42,92.01 63.58,92.01"/>
        <lane id=":nd1_11_1" index="1" speed="13.89" length="27.16" shape="36.42,95.21 63.58,95.21"/>
        <lane id=":nd1_11_2" index="2" speed="13.89" length="27.16" shape="36.41,98.41 63.58,98.41"/>
    </edge>
    <edge id=":nd1_14" function="internal">
        <lane id=":nd1_14_0" index="0" speed="3.65" length="1.44" shape="36.41,98.41 37.61,99.20"/>
    </edge>
    <edge id=":nd1_18" function="internal">
        <lane id=":nd1_18_0" index="0" speed="3.65" length="3.22" shape="37.61,99.20 38.01,100.00 37.61,100.80 36.41,101.59"/>
    </edge>
    <edge id=":nd2_0" function="internal">
        <lane id=":nd2_0_0" index="0" speed="6.51" length="9.04" shape="42.02,13.60 41.67,11.15 40.62,9.40 38.87,8.35 36.42,7.99"/>
    </edge>
    <edge id=":nd2_1" function="internal">
        <lane id=":nd2_1_0" index="0" speed="11.36" length="29.65" shape="45.22,13.60 46.37,5.55 49.81,-0.20 55.55,-3.65 63.59,-4.79"/>
        <lane id=":nd2_1_1" index="1" speed="10.36" length="24.49" shape="48.42,13.60 49.37,6.95 52.21,2.20 56.95,-0.65 63.59,-1.59"/>
    </edge>
    <edge id=":nd2_3" function="internal">
        <lane id=":nd2_3_0" index="0" speed="3.64" length="4.63" shape="48.42,13.60 49.21,12.41 50.00,12.02 50.79,12.41 51.58,13.60"/>
    </edge>
    <edge id=":nd2_4" function="internal">
        <lane id=":nd2_4_0" index="0" speed="6.51" length="9.03" shape="63.58,7.99 61.13,8.35 59.38,9.40 58.33,11.15 57.98,13.60"/>
    </edge>
    <edge id=":nd2_5" function="internal">
        <lane id=":nd2_5_0" index="0" speed="13.89" length="27.16" shape="63.58,7.99 36.42,7.99"/>
        <lane id=":nd2_5_1" index="1" speed="13.89" length="27.16" shape="63.58,4.79 36.42,4.79"/>
        <lane id=":nd2_5_2" index="2" speed="13.89" length="27.16" shape="63.59,1.59 36.42,1.59"/>
    </edge>
    <edge id=":nd2_8" function="internal">
        <lane id=":nd2_8_0" index="0" speed="3.65" length="1.44" shape="63.59,1.59 62.39,0.80"/>
    </edge>
    <edge id=":nd2_15" function="internal">
        <lane id=":nd2_15_0" index="0" speed="3.65" length="3.22" shape="62.39,0.80 61.99,-0.00 62.39,-0.80 63.59,-1.59"/>
    </edge>
    <edge id=":nd2_9" function="internal">
        <lane id=":nd2_9_0" index="0" speed="13.89" length="27.16" shape="36.43,-7.99 63.59,-7.99"/>
        <lane id=":nd2_9_1" index="1" speed="13.89" length="27.16" shape="36.42,-4.79 63.59,-4.79"/>
        <lane id=":nd2_9_2" index="2" speed="13.89" length="27.16" shape="36.42,-1.59 63.59,-1.59"/>
    </edge>
    <edge id=":nd2_12" function="internal">
        <lane id=":nd2_12_0" index="0" speed="10.88" length="5.93" shape="36.42,-1.59 42.31,-0.90"/>
        <lane id=":nd2_12_1" index="1" speed="10.36" length="4.93" shape="36.42,-1.59 41.30,-0.90"/>
    </edge>
    <edge id=":nd2_14" function="internal">
        <lane id=":nd2_14_0" index="0" speed="3.65" length="1.44" shape="36.42,-1.59 37.62,-0.80"/>
    </edge>
    <edge id=":nd2_16" function="internal">
        <lane id=":nd2_16_0" index="0" speed="10.88" length="21.17" shape="42.31,-0.90 44.45,-0.65 50.19,2.20 53.63,6.95 54.78,13.60"/>
    </edge>
    <edge id=":nd2_17" function="internal">
        <lane id=":nd2_17_0" index="0" speed="10.36" length="19.55" shape="41.30,-0.90 43.05,-0.65 47.79,2.20 50.63,6.95 51.58,13.60"/>
    </edge>
    <edge id=":nd2_18" function="internal">
        <lane id=":nd2_18_0" index="0" speed="3.65" length="3.22" shape="37.62,-0.80 38.02,0.00 37.62,0.80 36.42,1.59"/>
    </edge>
    <edge id=":nd3_0" function="internal">
        <lane id=":nd3_0_0" index="0" speed="6.51" length="9.03" shape="92.01,63.58 91.65,61.13 90.60,59.38 88.85,58.33 86.40,57.98"/>
    </edge>
    <edge id=":nd3_1" function="internal">
        <lane id=":nd3_1_0" index="0" speed="13.89" length="27.16" shape="92.01,63.58 92.01,36.42"/>
        <lane id=":nd3_1_1" index="1" speed="13.89" length="27.16" shape="95.21,63.58 95.21,36.42"/>
        <lane id=":nd3_1_2" index="2" speed="13.89" length="27.16" shape="98.41,63.59 98.41,36.42"/>
    </edge>
    <edge id=":nd3_4" function="internal">
        <lane id=":nd3_4_0" index="0" speed="3.65" length="1.44" shape="98.41,63.59 99.20,62.39"/>
    </edge>
    <edge id=":nd3_15" function="internal">
        <lane id=":nd3_15_0" index="0" speed="3.65" length="3.22" shape="99.20,62.39 100.00,61.99 100.80,62.39 101.59,63.59"/>
    </edge>
    <edge id=":nd3_5" function="internal">
        <lane id=":nd3_5_0" index="0" speed="13.89" length="27.16" shape="107.99,36.43 107.99,63.59"/>
        <lane id=":nd3_5_1" index="1" speed="13.89" length="27.16" shape="104.79,36.42 104.79,63.59"/>
        <lane id=":nd3_5_2" index="2" speed="13.89" length="27.16" shape="101.59,36.42 101.59,63.59"/>
    </edge>
    <edge id=":nd3_8" function="internal">
        <lane id=":nd3_8_0" index="0" speed="10.88" length="5.93" shape="101.59,36.42 100.90,42.31"/>
        <lane id=":nd3_8_1" index="1" speed="10.36" length="4.93" shape="101.59,36.42 100.90,41.30"/>
    </edge>
    <edge id=":nd3_10" function="internal">
        <lane id=":nd3_10_0" index="0" speed="3.65" length="1.44" shape="101.59,36.42 100.80,37.62"/>
    </edge>
    <edge id=":nd3_16" function="internal">
        <lane id=":nd3_16_0" index="0" speed="10.88" length="21.17" shape="100.90,42.31 100.65,44.45 97.80,50.19 93.05,53.63 86.40,54.78"/>
    </edge>
    <edge id=":nd3_17" function="internal">
        <lane id=":nd3_17_0" index="0" speed="10.36" length="19.55" shape="100.90,41.30 100.65,43.05 97.80,47.79 93.05,50.63 86.40,51.58"/>
    </edge>
    <edge id=":nd3_18" function="internal">
        <lane id=":nd3_18_0" index="0" speed="3.65" length="3.22" shape="100.80,37.62 100.00,38.02 99.20,37.62 98.41,36.42"/>
    </edge>
    <edge id=":nd3_11" function="internal">
        <lane id=":nd3_11_0" index="0" speed="6.51" length="9.04" shape="86.40,42.02 88.85,41.67 90.60,40.62 91.65,38.87 92.01,36.42"/>
    </edge>
    <edge id=":nd3_12" function="internal">
        <lane id=":nd3_12_0" index="0" speed="11.36" length="29.65" shape="86.40,45.22 94.45,46.37 100.20,49.81 103.65,55.55 104.79,63.59"/>
        <lane id=":nd3_12_1" index="1" speed="10.36" length="24.49" shape="86.40,48.42 93.05,49.37 97.80,52.21 100.65,56.95 101.59,63.59"/>
    </edge>
    <edge id=":nd3_14" function="internal">
        <lane id=":nd3_14_0" index="0" speed="3.64" length="4.63" shape="86.40,48.42 87.59,49.21 87.98,50.00 87.59,50.79 86.40,51.58"/>
    </edge>
    <edge id=":nd4_0" function="internal">
        <lane id=":nd4_0_0" index="0" speed="11.11" length="28.32" shape="107.98,90.41 106.88,98.10 103.59,103.59 98.10,106.88 90.43,107.98"/>
        <lane id=":nd4_0_1" index="1" speed="10.09" length="23.16" shape="104.78,90.41 103.88,96.70 101.19,101.19 96.70,103.88 90.42,104.78"/>
        <lane id=":nd4_0_2" index="2" speed="8.95" length="18.00" shape="101.58,90.41 100.88,95.30 98.79,98.79 95.30,100.88 90.42,101.58"/>
    </edge>
    <edge id=":nd4_3" function="internal">
        <lane id=":nd4_3_0" index="0" speed="3.90" length="2.58" shape="90.42,92.02 91.12,91.92 91.62,91.62 91.92,91.12 92.02,90.42"/>
        <lane id=":nd4_3_1" index="1" speed="6.08" length="7.74" shape="90.42,95.22 92.52,94.92 94.02,94.02 94.92,92.52 95.22,90.42"/>
        <lane id=":nd4_3_2" index="2" speed="7.65" length="12.90" shape="90.42,98.42 93.92,97.92 96.42,96.42 97.92,93.92 98.42,90.41"/>
    </edge>
    <edge id=":nd5_0" function="internal">
        <lane id=":nd5_0_0" index="0" speed="3.90" length="2.58" shape="92.02,9.58 91.92,8.88 91.62,8.38 91.12,8.08 90.42,7.98"/>
        <lane id=":nd5_0_1" index="1" speed="6.08" length="7.74" shape="95.22,9.58 94.92,7.48 94.02,5.98 92.52,5.08 90.42,4.78"/>
        <lane id=":nd5_0_2" index="2" speed="7.65" length="12.90" shape="98.42,9.58 97.92,6.08 96.42,3.58 93.92,2.08 90.41,1.58"/>
    </edge>
    <edge id=":nd5_3" function="internal">
        <lane id=":nd5_3_0" index="0" speed="11.11" length="28.32" shape="90.41,-7.98 98.10,-6.88 103.59,-3.59 106.88,1.90 107.98,9.57"/>
        <lane id=":nd5_3_1" index="1" speed="10.09" length="23.16" shape="90.41,-4.78 96.70,-3.88 101.19,-1.19 103.88,3.30 104.78,9.58"/>
        <lane id=":nd5_3_2" index="2" speed="8.95" length="18.00" shape="90.41,-1.58 95.30,-0.88 98.79,1.21 100.88,4.70 101.58,9.58"/>
    </edge>
    <edge id=":nd6_0" function="internal">
        <lane id=":nd6_0_0" index="0" speed="13.89" length="27.16" shape="-7.99,63.57 -7.99,36.41"/>
        <lane id=":nd6_0_1" index="1" speed="13.89" length="27.16" shape="-4.79,63.58 -4.79,36.41"/>
        <lane id=":nd6_0_2" index="2" speed="13.89" length="27.16" shape="-1.59,63.58 -1.59,36.41"/>
    </edge>
    <edge id=":nd6_3" function="internal">
        <lane id=":nd6_3_0" index="0" speed="10.88" length="5.93" shape="-1.59,63.58 -0.90,57.69"/>
        <lane id=":nd6_3_1" index="1" speed="10.36" length="4.93" shape="-1.59,63.58 -0.90,58.70"/>
    </edge>
    <edge id=":nd6_5" function="internal">
        <lane id=":nd6_5_0" index="0" speed="3.65" length="1.44" shape="-1.59,63.58 -0.80,62.38"/>
    </edge>
    <edge id=":nd6_15" function="internal">
        <lane id=":nd6_15_0" index="0" speed="10.88" length="21.17" shape="-0.90,57.69 -0.65,55.55 2.20,49.81 6.95,46.37 13.60,45.22"/>
    </edge>
    <edge id=":nd6_16" function="internal">
        <lane id=":nd6_16_0" index="0" speed="10.36" length="19.55" shape="-0.90,58.70 -0.65,56.95 2.20,52.21 6.95,49.37 13.60,48.42"/>
    </edge>
    <edge id=":nd6_17" function="internal">
        <lane id=":nd6_17_0" index="0" speed="3.65" length="3.22" shape="-0.80,62.38 0.00,61.98 0.80,62.38 1.59,63.58"/>
    </edge>
    <edge id=":nd6_6" function="internal">
        <lane id=":nd6_6_0" index="0" speed="6.51" length="9.04" shape="13.60,57.98 11.15,58.33 9.40,59.38 8.35,61.13 7.99,63.58"/>
    </edge>
    <edge id=":nd6_7" function="internal">
        <lane id=":nd6_7_0" index="0" speed="11.36" length="29.65" shape="13.60,54.78 5.55,53.63 -0.20,50.19 -3.65,44.45 -4.79,36.41"/>
        <lane id=":nd6_7_1" index="1" speed="10.36" length="24.49" shape="13.60,51.58 6.95,50.63 2.20,47.79 -0.65,43.05 -1.59,36.41"/>
    </edge>
    <edge id=":nd6_9" function="internal">
        <lane id=":nd6_9_0" index="0" speed="3.64" length="4.63" shape="13.60,51.58 12.41,50.79 12.02,50.00 12.41,49.21 13.60,48.42"/>
    </edge>
    <edge id=":nd6_10" function="internal">
        <lane id=":nd6_10_0" index="0" speed="6.51" length="9.03" shape="7.99,36.42 8.35,38.87 9.40,40.62 11.15,41.67 13.60,42.02"/>
    </edge>
    <edge id=":nd6_11" function="internal">
        <lane id=":nd6_11_0" index="0" speed="13.89" length="27.16" shape="7.99,36.42 7.99,63.58"/>
        <lane id=":nd6_11_1" index="1" speed="13.89" length="27.16" shape="4.79,36.42 4.79,63.58"/>
        <lane id=":nd6_11_2" index="2" speed="13.89" length="27.16" shape="1.59,36.41 1.59,63.58"/>
    </edge>
    <edge id=":nd6_14" function="internal">
        <lane id=":nd6_14_0" index="0" speed="3.65" length="1.44" shape="1.59,36.41 0.80,37.61"/>
    </edge>
    <edge id=":nd6_18" function="internal">
        <lane id=":nd6_18_0" index="0" speed="3.65" length="3.22" shape="0.80,37.61 -0.00,38.01 -0.80,37.61 -1.59,36.41"/>
    </edge>
    <edge id=":nd7_0" function="internal">
        <lane id=":nd7_0_0" index="0" speed="11.11" length="28.32" shape="9.59,107.98 1.90,106.88 -3.59,103.59 -6.88,98.10 -7.98,90.43"/>
        <lane id=":nd7_0_1" index="1" speed="10.09" length="23.16" shape="9.59,104.78 3.30,103.88 -1.19,101.19 -3.88,96.70 -4.78,90.42"/>
        <lane id=":nd7_0_2" index="2" speed="8.95" length="18.00" shape="9.59,101.58 4.70,100.88 1.21,98.79 -0.88,95.30 -1.58,90.42"/>
    </edge>
    <edge id=":nd7_3" function="internal">
        <lane id=":nd7_3_0" index="0" speed="3.90" length="2.58" shape="7.98,90.42 8.08,91.12 8.38,91.62 8.88,91.92 9.58,92.02"/>
        <lane id=":nd7_3_1" index="1" speed="6.08" length="7.74" shape="4.78,90.42 5.08,92.52 5.98,94.02 7.48,94.92 9.58,95.22"/>
        <lane id=":nd7_3_2" index="2" speed="7.65" length="12.90" shape="1.58,90.42 2.08,93.92 3.58,96.42 6.08,97.92 9.59,98.42"/>
    </edge>
    <edge id=":nd8_0" function="internal">
        <lane id=":nd8_0_0" index="0" speed="11.11" length="28.32" shape="-7.98,9.59 -6.88,1.90 -3.59,-3.59 1.90,-6.88 9.57,-7.98"/>
        <lane id=":nd8_0_1" index="1" speed="10.09" length="23.16" shape="-4.78,9.59 -3.88,3.30 -1.19,-1.19 3.30,-3.88 9.58,-4.78"/>
        <lane id=":nd8_0_2" index="2" speed="8.95" length="18.00" shape="-1.58,9.59 -0.88,4.70 1.21,1.21 4.70,-0.88 9.58,-1.58"/>
    </edge>
    <edge id=":nd8_3" function="internal">
        <lane id=":nd8_3_0" index="0" speed="3.90" length="2.58" shape="9.58,7.98 8.88,8.08 8.38,8.38 8.08,8.88 7.98,9.58"/>
        <lane id=":nd8_3_1" index="1" speed="6.08" length="7.74" shape="9.58,4.78 7.48,5.08 5.98,5.98 5.08,7.48 4.78,9.58"/>
        <lane id=":nd8_3_2" index="2" speed="7.65" length="12.90" shape="9.58,1.58 6.08,2.08 3.58,3.58 2.08,6.08 1.58,9.59"/>
    </edge>

    <edge id="-nd0to1" from="nd1" to="nd0" priority="-1" spreadType="center" shape="45.22,100.46 45.20,50.00">
        <lane id="-nd0to1_0" index="0" speed="13.89" length="22.81" shape="42.02,86.40 42.01,63.59"/>
        <lane id="-nd0to1_1" index="1" speed="13.89" length="22.81" shape="45.22,86.40 45.21,63.59"/>
        <lane id="-nd0to1_2" index="2" speed="13.89" length="22.81" shape="48.42,86.40 48.41,63.60"/>
    </edge>
    <edge id="-nd0to2" from="nd2" to="nd0" priority="-1" spreadType="center" shape="54.78,-0.46 54.80,50.00">
        <lane id="-nd0to2_0" index="0" speed="13.89" length="22.81" shape="57.98,13.60 57.99,36.41"/>
        <lane id="-nd0to2_1" index="1" speed="13.89" length="22.81" shape="54.78,13.60 54.79,36.41"/>
        <lane id="-nd0to2_2" index="2" speed="13.89" length="22.81" shape="51.58,13.60 51.59,36.40"/>
    </edge>
    <edge id="-nd0to3" from="nd3" to="nd0" priority="-1" spreadType="center" shape="100.46,54.78 50.00,54.80">
        <lane id="-nd0to3_0" index="0" speed="13.89" length="22.81" shape="86.40,57.98 63.59,57.99"/>
        <lane id="-nd0to3_1" index="1" speed="13.89" length="22.81" shape="86.40,54.78 63.59,54.79"/>
        <lane id="-nd0to3_2" index="2" speed="13.89" length="22.81" shape="86.40,51.58 63.60,51.59"/>
    </edge>
    <edge id="-nd0to6" from="nd6" to="nd0" priority="-1" spreadType="center" shape="-0.46,45.22 50.00,45.20">
        <lane id="-nd0to6_0" index="0" speed="13.89" length="22.81" shape="13.60,42.02 36.41,42.01"/>
        <lane id="-nd0to6_1" index="1" speed="13.89" length="22.81" shape="13.60,45.22 36.41,45.21"/>
        <lane id="-nd0to6_2" index="2" speed="13.89" length="22.81" shape="13.60,48.42 36.40,48.41"/>
    </edge>
    <edge id="-nd1to4" from="nd4" to="nd1" priority="-1" spreadType="center" shape="100.46,104.78 50.00,104.80">
        <lane id="-nd1to4_0" index="0" speed="13.89" length="26.85" shape="90.43,107.98 63.57,107.99"/>
        <lane id="-nd1to4_1" index="1" speed="13.89" length="26.85" shape="90.42,104.78 63.58,104.79"/>
        <lane id="-nd1to4_2" index="2" speed="13.89" length="26.85" shape="90.42,101.58 63.58,101.59"/>
    </edge>
    <edge id="-nd1to7" from="nd7" to="nd1" priority="-1" spreadType="center" shape="-0.46,95.22 50.00,95.20">
        <lane id="-nd1to7_0" index="0" speed="13.89" length="26.83" shape="9.58,92.02 36.42,92.01"/>
        <lane id="-nd1to7_1" index="1" speed="13.89" length="26.83" shape="9.58,95.22 36.42,95.21"/>
        <lane id="-nd1to7_2" index="2" speed="13.89" length="26.83" shape="9.59,98.42 36.41,98.41"/>
    </edge>
    <edge id="-nd2to5" from="nd5" to="nd2" priority="-1" spreadType="center" shape="100.46,4.78 50.00,4.80">
        <lane id="-nd2to5_0" index="0" speed="13.89" length="26.83" shape="90.42,7.98 63.58,7.99"/>
        <lane id="-nd2to5_1" index="1" speed="13.89" length="26.83" shape="90.42,4.78 63.58,4.79"/>
        <lane id="-nd2to5_2" index="2" speed="13.89" length="26.83" shape="90.41,1.58 63.59,1.59"/>
    </edge>
    <edge id="-nd2to8" from="nd8" to="nd2" priority="-1" spreadType="center" shape="-0.46,-4.78 50.00,-4.80">
        <lane id="-nd2to8_0" index="0" speed="13.89" length="26.85" shape="9.57,-7.98 36.43,-7.99"/>
        <lane id="-nd2to8_1" index="1" speed="13.89" length="26.85" shape="9.58,-4.78 36.42,-4.79"/>
        <lane id="-nd2to8_2" index="2" speed="13.89" length="26.85" shape="9.58,-1.58 36.42,-1.59"/>
    </edge>
    <edge id="-nd3to4" from="nd4" to="nd3" priority="-1" spreadType="center" shape="95.22,100.46 95.20,50.00">
        <lane id="-nd3to4_0" index="0" speed="13.89" length="26.83" shape="92.02,90.42 92.01,63.58"/>
        <lane id="-nd3to4_1" index="1" speed="13.89" length="26.83" shape="95.22,90.42 95.21,63.58"/>
        <lane id="-nd3to4_2" index="2" speed="13.89" length="26.83" shape="98.42,90.41 98.41,63.59"/>
    </edge>
    <edge id="-nd3to5" from="nd5" to="nd3" priority="-1" spreadType="center" shape="104.78,-0.46 104.80,50.00">
        <lane id="-nd3to5_0" index="0" speed="13.89" length="26.85" shape="107.98,9.57 107.99,36.43"/>
        <lane id="-nd3to5_1" index="1" speed="13.89" length="26.85" shape="104.78,9.58 104.79,36.42"/>
        <lane id="-nd3to5_2" index="2" speed="13.89" length="26.85" shape="101.58,9.58 101.59,36.42"/>
    </edge>
    <edge id="-nd6to7" from="nd7" to="nd6" priority="-1" spreadType="center" shape="-4.78,100.46 -4.80,50.00">
        <lane id="-nd6to7_0" index="0" speed="13.89" length="26.85" shape="-7.98,90.43 -7.99,63.57"/>
        <lane id="-nd6to7_1" index="1" speed="13.89" length="26.85" shape="-4.78,90.42 -4.79,63.58"/>
        <lane id="-nd6to7_2" index="2" speed="13.89" length="26.85" shape="-1.58,90.42 -1.59,63.58"/>
    </edge>
    <edge id="-nd6to8" from="nd8" to="nd6" priority="-1" spreadType="center" shape="4.78,-0.46 4.80,50.00">
        <lane id="-nd6to8_0" index="0" speed="13.89" length="26.83" shape="7.98,9.58 7.99,36.42"/>
        <lane id="-nd6to8_1" index="1" speed="13.89" length="26.83" shape="4.78,9.58 4.79,36.42"/>
        <lane id="-nd6to8_2" index="2" speed="13.89" length="26.83" shape="1.58,9.59 1.59,36.41"/>
    </edge>
    <edge id="nd0to1" from="nd0" to="nd1" priority="-1" spreadType="center" shape="54.80,50.00 54.78,100.46">
        <lane id="nd0to1_0" index="0" speed="13.89" length="22.80" shape="57.99,63.60 57.98,86.40"/>
        <lane id="nd0to1_1" index="1" speed="13.89" length="22.80" shape="54.79,63.60 54.78,86.40"/>
        <lane id="nd0to1_2" index="2" speed="13.89" length="22.80" shape="51.59,63.60 51.58,86.40"/>
    </edge>
    <edge id="nd0to2" from="nd0" to="nd2" priority="-1" spreadType="center" shape="45.20,50.00 45.22,-0.46">
        <lane id="nd0to2_0" index="0" speed="13.89" length="22.80" shape="42.01,36.40 42.02,13.60"/>
        <lane id="nd0to2_1" index="1" speed="13.89" length="22.80" shape="45.21,36.40 45.22,13.60"/>
        <lane id="nd0to2_2" index="2" speed="13.89" length="22.80" shape="48.41,36.40 48.42,13.60"/>
    </edge>
    <edge id="nd0to3" from="nd0" to="nd3" priority="-1" spreadType="center" shape="50.00,45.20 100.46,45.22">
        <lane id="nd0to3_0" index="0" speed="13.89" length="22.80" shape="63.60,42.01 86.40,42.02"/>
        <lane id="nd0to3_1" index="1" speed="13.89" length="22.80" shape="63.60,45.21 86.40,45.22"/>
        <lane id="nd0to3_2" index="2" speed="13.89" length="22.80" shape="63.60,48.41 86.40,48.42"/>
    </edge>
    <edge id="nd0to6" from="nd0" to="nd6" priority="-1" spreadType="center" shape="50.00,54.80 -0.46,54.78">
        <lane id="nd0to6_0" index="0" speed="13.89" length="22.80" shape="36.40,57.99 13.60,57.98"/>
        <lane id="nd0to6_1" index="1" speed="13.89" length="22.80" shape="36.40,54.79 13.60,54.78"/>
        <lane id="nd0to6_2" index="2" speed="13.89" length="22.80" shape="36.40,51.59 13.60,51.58"/>
    </edge>
    <edge id="nd1to4" from="nd1" to="nd4" priority="-1" spreadType="center" shape="50.00,95.20 100.46,95.22">
        <lane id="nd1to4_0" index="0" speed="13.89" length="26.84" shape="63.58,92.01 90.42,92.02"/>
        <lane id="nd1to4_1" index="1" speed="13.89" length="26.84" shape="63.58,95.21 90.42,95.22"/>
        <lane id="nd1to4_2" index="2" speed="13.89" length="26.84" shape="63.58,98.41 90.42,98.42"/>
    </edge>
    <edge id="nd1to7" from="nd1" to="nd7" priority="-1" spreadType="center" shape="50.00,104.80 -0.46,104.78">
        <lane id="nd1to7_0" index="0" speed="13.89" length="26.82" shape="36.41,107.99 9.59,107.98"/>
        <lane id="nd1to7_1" index="1" speed="13.89" length="26.82" shape="36.41,104.79 9.59,104.78"/>
        <lane id="nd1to7_2" index="2" speed="13.89" length="26.82" shape="36.41,101.59 9.59,101.58"/>
    </edge>
    <edge id="nd2to5" from="nd2" to="nd5" priority="-1" spreadType="center" shape="50.00,-4.80 100.46,-4.78">
        <lane id="nd2to5_0" index="0" speed="13.89" length="26.82" shape="63.59,-7.99 90.41,-7.98"/>
        <lane id="nd2to5_1" index="1" speed="13.89" length="26.82" shape="63.59,-4.79 90.41,-4.78"/>
        <lane id="nd2to5_2" index="2" speed="13.89" length="26.82" shape="63.59,-1.59 90.41,-1.58"/>
    </edge>
    <edge id="nd2to8" from="nd2" to="nd8" priority="-1" spreadType="center" shape="50.00,4.80 -0.46,4.78">
        <lane id="nd2to8_0" index="0" speed="13.89" length="26.84" shape="36.42,7.99 9.58,7.98"/>
        <lane id="nd2to8_1" index="1" speed="13.89" length="26.84" shape="36.42,4.79 9.58,4.78"/>
        <lane id="nd2to8_2" index="2" speed="13.89" length="26.84" shape="36.42,1.59 9.58,1.58"/>
    </edge>
    <edge id="nd3to4" from="nd3" to="nd4" priority="-1" spreadType="center" shape="104.80,50.00 104.78,100.46">
        <lane id="nd3to4_0" index="0" speed="13.89" length="26.82" shape="107.99,63.59 107.98,90.41"/>
        <lane id="nd3to4_1" index="1" speed="13.89" length="26.82" shape="104.79,63.59 104.78,90.41"/>
        <lane id="nd3to4_2" index="2" speed="13.89" length="26.82" shape="101.59,63.59 101.58,90.41"/>
    </edge>
    <edge id="nd3to5" from="nd3" to="nd5" priority="-1" spreadType="center" shape="95.20,50.00 95.22,-0.46">
        <lane id="nd3to5_0" index="0" speed="13.89" length="26.84" shape="92.01,36.42 92.02,9.58"/>
        <lane id="nd3to5_1" index="1" speed="13.89" length="26.84" shape="95.21,36.42 95.22,9.58"/>
        <lane id="nd3to5_2" index="2" speed="13.89" length="26.84" shape="98.41,36.42 98.42,9.58"/>
    </edge>