<routes>
    <vType id="typeOnly" accel="0.8" decel="4.5" sigma="0.5" length="5" minGap="2.5" maxSpeed="16.67"/>

    <route id="WE" edges="e5_1to1 e1to0 e0to3 e3to5_3"/>
    <route id="EW" edges="e5_3to3 e3to0 e0to1 e1to5_1"/>
    <route id="NS" edges="e5_2to2 e2to0 e0to4 e4to5_4"/>

    <vehicle id="EW_0" type="typeOnly" route="EW" depart="0"/>
    <vehicle id="EW_2" type="typeOnly" route="EW" depart="2"/>
    <vehicle id="WE_3" type="typeOnly" route="WE" depart="3"/>
    <vehicle id="WE_4" type="typeOnly" route="WE" depart="4"/>
    <vehicle id="EW_6" type="typeOnly" route="EW" depart="6"/>
    <vehicle id="WE_9" type="typeOnly" route="WE" depart="9"/>
    <vehicle id="EW_22" type="typeOnly" route="EW" depart="22"/>
    <vehicle id="EW_31" type="typeOnly" route="EW" depart="31"/>
    <vehicle id="EW_33" type="typeOnly" route="EW" depart="33"/>
    <vehicle id="EW_41" type="typeOnly" route="EW" depart="41"/>
    <vehicle id="WE_42" type="typeOnly" route="WE" depart="42"/>
    <vehicle id="EW_45" type="typeOnly" route="EW" depart="45"/>
    <vehicle id="EW_53" type="typeOnly" route="EW" depart="53"/>
    <vehicle id="WE_55" type="typeOnly" route="WE" depart="55"/>
    <vehicle id="WE_61" type="typeOnly" route="WE" depart="61"/>
    <vehicle id="WE_69" type="typeOnly" route="WE" depart="69"/>
    <vehicle id="WE_84" type="typeOnly" route="WE" depart="84"/>
    <vehicle id="EW_85" type="typeOnly" route="EW" depart="85"/>
    <vehicle id="NS_89" type="typeOnly" route="NS" depart="89"/>
    <vehicle id="NS_96" type="typeOnly" route="NS" depart="96"/>
    <vehicle id="WE_99" type="typeOnly" route="WE" depart="99"/>
    <vehicle id="EW_99" type="typeOnly" route="EW" depart="99"/>
    <vehicle id="WE_108" type="typeOnly" route="WE" depart="108"/>
    <vehicle id="WE_114" type="typeOnly" route="WE" depart="114"/>
    <vehicle id="NS_122" type="typeOnly" route="NS" depart="122"/>
    <vehicle id="WE_125" type="typeOnly" route="WE" depart="125"/>
    <vehicle id="EW_131" type="typeOnly" route="EW" depart="131"/>
    <vehicle id="EW_135" type="typeOnly" route="EW" depart="135"/>
    <vehicle id="EW_138" type="typeOnly" route="EW" depart="138"/>
    <vehicle id="EW_142" type="typeOnly" route="EW" depart="142"/>
    <vehicle id="WE_145" type="typeOnly" route="WE" depart="145"/>
    <vehicle id="EW_153" type="typeOnly" route="EW" depart="153"/>
    <vehicle id="EW_156" type="typeOnly" route="EW" depart="156"/>
    <vehicle id="EW_160" type="typeOnly" route="EW" depart="160"/>
    <vehicle id="EW_164" type="typeOnly" route="EW" depart="164"/>
    <vehicle id="WE_167" type="typeOnly" route="WE" depart="167"/>
    <vehicle id="WE_168" type="typeOnly" route="WE" depart="168"/>
    <vehicle id="EW_169" type="typeOnly" route="EW" depart="169"/>
    <vehicle id="EW_172" type="typeOnly" route="EW" depart="172"/>
    <vehicle id="NS_172" type="typeOnly" route="NS" depart="172"/>
    <vehicle id="WE_176" type="typeOnly" route="WE" depart="176"/>
    <vehicle id="WE_181" type="typeOnly" route="WE" depart="181"/>
    <vehicle id="WE_183" type="typeOnly" route="WE" depart="183"/>
    <vehicle id="EW_194" type="typeOnly" route="EW" depart="194"/>
    <vehicle id="EW_196" type="typeOnly" route="EW" depart="196"/>
    <vehicle id="EW_199" type="typeOnly" route="EW" depart="199"/>
    <vehicle id="WE_200" type="typeOnly" route="WE" depart="200"/>
    <vehicle id="EW_212" type="typeOnly" route="EW" depart="212"/>
    <vehicle id="WE_217" type="typeOnly" route="WE" depart="217"/>
    <vehicle id="EW_219" type="typeOnly" route="EW" depart="219"/>
    <vehicle id="WE_228" type="typeOnly" route="WE" depart="228"/>
    <vehicle id="EW_234" type="typeOnly" route="EW" depart="234"/>
    <vehicle id="EW_238" type="typeOnly" route="EW" depart="238"/>
    <vehicle id="WE_240" type="typeOnly" route="WE" depart="240"/>
    <vehicle id="EW_272" type="typeOnly" route="EW" depart="272"/>
    <vehicle id="EW_275" type="typeOnly" route="EW" depart="275"/>
    <vehicle id="WE_284" type="typeOnly" route="WE" depart="284"/>
    <vehicle id="WE_286" type="typeOnly" route="WE" depart="286"/>
    <vehicle id="WE_288" type="typeOnly" route="WE" depart="288"/>
    <vehicle id="WE_291" type="typeOnly" route="WE" depart="291"/>
    <vehicle id="WE_294" type="typeOnly" route="WE" depart="294"/>
    <vehicle id="NS_318" type="typeOnly" route="NS" depart="318"/>
    <vehicle id="WE_322" type="typeOnly" route="WE" depart="322"/>
    <vehicle id="NS_331" type="typeOnly" route="NS" depart="331"/>
    <vehicle id="NS_337" type="typeOnly" route="NS" depart="337"/>
    <vehicle id="EW_339" type="typeOnly" route="EW" depart="339"/>
    <vehicle id="WE_342" type="typeOnly" route="WE" depart="342"/>
    <vehicle id="EW_344" type="typeOnly" route="EW" depart="344"/>
    <vehicle id="NS_344" type="typeOnly" route="NS" depart="344"/>
    <vehicle id="EW_346" type="typeOnly" route="EW" depart="346"/>
    <vehicle id="WE_354" type="typeOnly" route="WE" depart="354"/>
    <vehicle id="WE_375" type="typeOnly" route="WE" depart="375"/>
    <vehicle id="NS_377" type="typeOnly" route="NS" depart="377"/>
    <vehicle id="NS_379" type="typeOnly" route="NS" depart="379"/>
    <vehicle id="WE_383" type="typeOnly" route="WE" depart="383"/>
    <vehicle id="EW_388" type="typeOnly" route="EW" depart="388"/>
    <vehicle id="EW_389" type="typeOnly" route="EW" depart="389"/>
    <vehicle id="EW_391" type="typeOnly" route="EW" depart="391"/>
    <vehicle id="WE_394" type="typeOnly" route="WE" depart="394"/>
    <vehicle id="WE_395" type="typeOnly" route="WE" depart="395"/>
    <vehicle id="NS_397" type="typeOnly" route="NS" depart="397"/>
    <vehicle id="WE_412" type="typeOnly" route="WE" depart="412"/>
    <vehicle id="EW_413" type="typeOnly" route="EW" depart="413"/>
    <vehicle id="EW_415" type="typeOnly" route="EW" depart="415"/>
    <vehicle id="EW_420" type="typeOnly" route="EW" depart="420"/>
    <vehicle id="WE_427" type="typeOnly" route="WE" depart="427"/>
    <vehicle id="NS_457" type="typeOnly" route="NS" depart="457"/>
    <vehicle id="WE_458" type="typeOnly" route="WE" depart="458"/>
    <vehicle id="NS_459" type="typeOnly" route="NS" depart="459"/>
    <vehicle id="NS_463" type="typeOnly" route="NS" depart="463"/>
    <vehicle id="WE_464" type="typeOnly" route="WE" depart="464"/>
    <vehicle id="WE_467" type="typeOnly" route="WE" depart="467"/>
    <vehicle id="EW_469" type="typeOnly" route="EW" depart="469"/>
    <vehicle id="EW_472" type="typeOnly" route="EW" depart="472"/>
    <vehicle id="WE_473" type="typeOnly" route="WE" depart="473"/>
    <vehicle id="EW_476" type="typeOnly" route="EW" depart="476"/>
    <vehicle id="WE_479" type="typeOnly" route="WE" depart="479"/>
    <vehicle id="WE_482" type="typeOnly" route="WE" depart="482"/>
    <vehicle id="EW_483" type="typeOnly" route="EW" depart="483"/>
    <vehicle id="WE_484" type="typeOnly" route="WE" depart="484"/>
    <vehicle id="EW_492" type="typeOnly" route="EW" depart="492"/>
    <vehicle id="WE_494" type="typeOnly" route="WE" depart="494"/>
    <vehicle id="EW_496" type="typeOnly" route="EW" depart="496"/>
    <vehicle id="WE_502" type="typeOnly" route="WE" depart="502"/>
    <vehicle id="EW_514" type="typeOnly" route="EW" depart="514"/>
    <vehicle id="NS_518" type="typeOnly" route="NS" depart="518"/>
    <vehicle id="WE_523" type="typeOnly" route="WE" depart="523"/>
    <vehicle id="EW_527" type="typeOnly" route="EW" depart="527"/>
    <vehicle id="WE_536" type="typeOnly" route="WE" depart="536"/>
    <vehicle id="EW_536" type="typeOnly" route="EW" depart="536"/>
    <vehicle id="EW_541" type="typeOnly" route="EW" depart="541"/>
    <vehicle id="EW_552" type="typeOnly" route="EW" depart="552"/>
    <vehicle id="EW_554" type="typeOnly" route="EW" depart="554"/>
    <vehicle id="WE_565" type="typeOnly" route="WE" depart="565"/>
    <vehicle id="NS_573" type="typeOnly" route="NS" depart="573"/>
    <vehicle id="EW_578" type="typeOnly" route="EW" depart="578"/>
    <vehicle id="EW_579" type="typeOnly" route="EW" depart="579"/>
    <vehicle id="EW_582" type="typeOnly" route="EW" depart="582"/>
    <vehicle id="EW_602" type="typeOnly" route="EW" depart="602"/>
    <vehicle id="EW_606" type="typeOnly" route="EW" depart="606"/>
    <vehicle id="WE_612" type="typeOnly" route="WE" depart="612"/>
    <vehicle id="NS_624" type="typeOnly" route="NS" depart="624"/>
    <vehicle id="EW_634" type="typeOnly" route="EW" depart="634"/>
    <vehicle id="EW_635" type="typeOnly" route="EW" depart="635"/>
    <vehicle id="WE_636" type="typeOnly" route="WE" depart="636"/>
    <vehicle id="EW_641" type="typeOnly" route="EW" depart="641"/>
    <vehicle id="WE_644" type="typeOnly" route="WE" depart="644"/>
    <vehicle id="EW_646" type="typeOnly" route="EW" depart="646"/>
    <vehicle id="NS_653" type="typeOnly" route="NS" depart="653"/>
    <vehicle id="WE_654" type="typeOnly" route="WE" depart="654"/>
    <vehicle id="EW_659" type="typeOnly" route="EW" depart="659"/>
    <vehicle id="EW_660" type="typeOnly" route="EW" depart="660"/>
    <vehicle id="EW_661" type="typeOnly" route="EW" depart="661"/>
    <vehicle id="EW_663" type="typeOnly" route="EW" depart="663"/>
    <vehicle id="WE_668" type="typeOnly" route="WE" depart="668"/>
    <vehicle id="EW_683" type="typeOnly" route="EW" depart="683"/>
    <vehicle id="WE_701" type="typeOnly" route="WE" depart="701"/>
    <vehicle id="WE_704" type="typeOnly" route="WE" depart="704"/>
    <vehicle id="NS_706" type="typeOnly" route="NS" depart="706"/>
    <vehicle id="EW_707" type="typeOnly" route="EW" depart="707"/>
    <vehicle id="NS_708" type="typeOnly" route="NS" depart="708"/>
    <vehicle id="EW_717" type="typeOnly" route="EW" depart="717"/>
    <vehicle id="NS_717" type="typeOnly" route="NS" depart="717"/>
    <vehicle id="WE_720" type="typeOnly" route="WE" depart="720"/>
    <vehicle id="EW_722" type="typeOnly" route="EW" depart="722"/>
    <vehicle id="WE_724" type="typeOnly" route="WE" depart="724"/>
    <vehicle id="WE_731" type="typeOnly" route="WE" depart="731"/>
    <vehicle id="NS_733" type="typeOnly" route="NS" depart="733"/>
    <vehicle id="WE_738" type="typeOnly" route="WE" depart="738"/>
    <vehicle id="EW_740" type="typeOnly" route="EW" depart="740"/>
    <vehicle id="EW_743" type="typeOnly" route="EW" depart="743"/>
    <vehicle id="WE_744" type="typeOnly" route="WE" depart="744"/>
    <vehicle id="WE_746" type="typeOnly" route="WE" depart="746"/>
    <vehicle id="EW_749" type="typeOnly" route="EW" depart="749"/>
    <vehicle id="EW_768" type="typeOnly" route="EW" depart="768"/>
    <vehicle id="EW_774" type="typeOnly" route="EW" depart="774"/>
    <vehicle id="NS_776" type="typeOnly" route="NS" depart="776"/>
    <vehicle id="NS_780" type="typeOnly" route="NS" depart="780"/>
    <vehicle id="NS_791" type="typeOnly" route="NS" depart="791"/>
    <vehicle id="EW_801" type="typeOnly" route="EW" depart="801"/>
    <vehicle id="WE_808" type="typeOnly" route="WE" depart="808"/>
    <vehicle id="NS_808" type="typeOnly" route="NS" depart="808"/>
    <vehicle id="WE_812" type="typeOnly" route="WE" depart="812"/>
    <vehicle id="EW_812" type="typeOnly" route="EW" depart="812"/>
    <vehicle id="WE_826" type="typeOnly" route="WE" depart="826"/>
    <vehicle id="NS_838" type="typeOnly" route="NS" depart="838"/>
    <vehicle id="WE_841" type="typeOnly" route="WE" depart="841"/>
    <vehicle id="EW_845" type="typeOnly" route="EW" depart="845"/>
    <vehicle id="NS_847" type="typeOnly" route="NS" depart="847"/>
    <vehicle id="EW_854" type="typeOnly" route="EW" depart="854"/>
    <vehicle id="WE_856" type="typeOnly" route="WE" depart="856"/>
    <vehicle id="WE_858" type="typeOnly" route="WE" depart="858"/>
    <vehicle id="EW_862" type="typeOnly" route="EW" depart="862"/>
    <vehicle id="EW_865" type="typeOnly" route="EW" depart="865"/>
    <vehicle id="EW_868" type="typeOnly" route="EW" depart="868"/>
    <vehicle id="WE_879" type="typeOnly" route="WE" depart="879"/>
    <vehicle id="EW_879" type="typeOnly" route="EW" depart="879"/>
    <vehicle id="WE_880" type="typeOnly" route="WE" depart="880"/>
    <vehicle id="EW_880" type="typeOnly" route="EW" depart="880"/>
    <vehicle id="WE_887" type="typeOnly" route="WE" depart="887"/>
    <vehicle id="EW_888" type="typeOnly" route="EW" depart="888"/>
    <vehicle id="NS_895" type="typeOnly" route="NS" depart="895"/>
    <vehicle id="WE_907" type="typeOnly" route="WE" depart="907"/>
    <vehicle id="NS_911" type="typeOnly" route="NS" depart="911"/>
    <vehicle id="WE_916" type="typeOnly" route="WE" depart="916"/>
    <vehicle id="EW_918" type="typeOnly" route="EW" depart="918"/>
    <vehicle id="WE_921" type="typeOnly" route="WE" depart="921"/>
    <vehicle id="WE_922" type="typeOnly" route="WE" depart="922"/>
    <vehicle id="EW_924" type="typeOnly" route="EW" depart="924"/>
    <vehicle id="WE_939" type="typeOnly" route="WE" depart="939"/>
    <vehicle id="NS_941" type="typeOnly" route="NS" depart="941"/>
    <vehicle id="EW_945" type="typeOnly" route="EW" depart="945"/>
    <vehicle id="WE_948" type="typeOnly" route="WE" depart="948"/>
    <vehicle id="WE_950" type="typeOnly" route="WE" depart="950"/>
    <vehicle id="EW_952" type="typeOnly" route="EW" depart="952"/>
    <vehicle id="EW_954" type="typeOnly" route="EW" depart="954"/>
    <vehicle id="EW_965" type="typeOnly" route="EW" depart="965"/>
    <vehicle id="NS_969" type="typeOnly" route="NS" depart="969"/>
    <vehicle id="EW_973" type="typeOnly" route="EW" depart="973"/>
    <vehicle id="NS_974" type="typeOnly" route="NS" depart="974"/>
    <vehicle id="EW_977" type="typeOnly" route="EW" depart="977"/>
    <vehicle id="WE_989" type="typeOnly" route="WE" depart="989"/>
    <vehicle id="EW_993" type="typeOnly" route="EW" depart="993"/>
    <vehicle id="NS_996" type="typeOnly" route="NS" depart="996"/>
    <vehicle id="EW_1001" type="typeOnly" route="EW" depart="1001"/>
    <vehicle id="WE_1003" type="typeOnly" route="WE" depart="1003"/>
    <vehicle id="WE_1005" type="typeOnly" route="WE" depart="1005"/>
    <vehicle id="EW_1006" type="typeOnly" route="EW" depart="1006"/>
    <vehicle id="WE_1011" type="typeOnly" route="WE" depart="1011"/>
    <vehicle id="EW_1014" type="typeOnly" route="EW" depart="1014"/>
    <vehicle id="EW_1015" type="typeOnly" route="EW" depart="1015"/>
    <vehicle id="EW_1026" type="typeOnly" route="EW" depart="1026"/>
    <vehicle id="EW_1034" type="typeOnly" route="EW" depart="1034"/>
    <vehicle id="WE_1043" type="typeOnly" route="WE" depart="1043"/>
    <vehicle id="WE_1047" type="typeOnly" route="WE" depart="1047"/>
    <vehicle id="WE_1049" type="typeOnly" route="WE" depart="1049"/>
    <vehicle id="NS_1056" type="typeOnly" route="NS" depart="1056"/>
    <vehicle id="WE_1061" type="typeOnly" route="WE" depart="1061"/>
    <vehicle id="WE_1068" type="typeOnly" route="WE" depart="1068"/>
    <vehicle id="WE_1069" type="typeOnly" route="WE" depart="1069"/>
    <vehicle id="EW_1070" type="typeOnly" route="EW" depart="1070"/>
    <vehicle id="WE_1078" type="typeOnly" route="WE" depart="1078"/>
    <vehicle id="EW_1085" type="typeOnly" route="EW" depart="1085"/>
    <vehicle id="WE_1093" type="typeOnly" route="WE" depart="1093"/>
    <vehicle id="EW_1097" type="typeOnly" route="EW" depart="1097"/>
    <vehicle id="EW_1099" type="typeOnly" route="EW" depart="1099"/>
    <vehicle id="EW_1104" type="typeOnly" route="EW" depart="1104"/>
    <vehicle id="NS_1109" type="typeOnly" route="NS" depart="1109"/>
    <vehicle id="WE_1123" type="typeOnly" route="WE" depart="1123"/>
    <vehicle id="EW_1124" type="typeOnly" route="EW" depart="1124"/>
    <vehicle id="EW_1135" type="typeOnly" route="EW" depart="1135"/>
    <vehicle id="EW_1137" type="typeOnly" route="EW" depart="1137"/>
    <vehicle id="WE_1141" type="typeOnly" route="WE" depart="1141"/>
    <vehicle id="EW_1143" type="typeOnly" route="EW" depart="1143"/>
    <vehicle id="WE_1146" type="typeOnly" route="WE" depart="1146"/>
    <vehicle id="EW_1150" type="typeOnly" route="EW" depart="1150"/>
    <vehicle id="NS_1153" type="typeOnly" route="NS" depart="1153"/>
    <vehicle id="EW_1156" type="typeOnly" route="EW" depart="1156"/>
    <vehicle id="WE_1167" type="typeOnly" route="WE" depart="1167"/>
    <vehicle id="EW_1172" type="typeOnly" route="EW" depart="1172"/>
    <vehicle id="EW_1181" type="typeOnly" route="EW" depart="1181"/>
    <vehicle id="WE_1208" type="typeOnly" route="WE" depart="1208"/>
    <vehicle id="WE_1212" type="typeOnly" route="WE" depart="1212"/>
    <vehicle id="EW_1218" type="typeOnly" route="EW" depart="1218"/>
    <vehicle id="EW_1232" type="typeOnly" route="EW" depart="1232"/>
    <vehicle id="EW_1237" type="typeOnly" route="EW" depart="1237"/>
    <vehicle id="EW_1246" type="typeOnly" route="EW" depart="1246"/>
    <vehicle id="WE_1252" type="typeOnly" route="WE" depart="1252"/>
    <vehicle id="EW_1252" type="typeOnly" route="EW" depart="1252"/>
    <vehicle id="EW_1255" type="typeOnly" route="EW" depart="1255"/>
    <vehicle id="WE_1258" type="typeOnly" route="WE" depart="1258"/>
    <vehicle id="WE_1267" type="typeOnly" route="WE" depart="1267"/>
    <vehicle id="WE_1275" type="typeOnly" route="WE" depart="1275"/>
    <vehicle id="EW_1281" type="typeOnly" route="EW" depart="1281"/>
    <vehicle id="EW_1288" type="typeOnly" route="EW" depart="1288"/>
    <vehicle id="WE_1289" type="typeOnly" route="WE" depart="1289"/>
    <vehicle id="NS_1289" type="typeOnly" route="NS" depart="1289"/>
    <vehicle id="EW_1301" type="typeOnly" route="EW" depart="1301"/>
    <vehicle id="WE_1302" type="typeOnly" route="WE" depart="1302"/>
    <vehicle id="WE_1304" type="typeOnly" route="WE" depart="1304"/>
    <vehicle id="NS_1317" type="typeOnly" route="NS" depart="1317"/>
    <vehicle id="WE_1318" type="typeOnly" route="WE" depart="1318"/>
    <vehicle id="EW_1319" type="typeOnly" route="EW" depart="1319"/>
    <vehicle id="WE_1320" type="typeOnly" route="WE" depart="1320"/>
    <vehicle id="WE_1322" type="typeOnly" route="WE" depart="1322"/>
    <vehicle id="EW_1323" type="typeOnly" route="EW" depart="1323"/>
    <vehicle id="EW_1332" type="typeOnly" route="EW" depart="1332"/>
    <vehicle id="WE_1340" type="typeOnly" route="WE" depart="1340"/>
    <vehicle id="EW_1344" type="typeOnly" route="EW" depart="1344"/>
    <vehicle id="WE_1357" type="typeOnly" route="WE" depart="1357"/>
    <vehicle id="EW_1359" type="typeOnly" route="EW" depart="1359"/>
    <vehicle id="EW_1366" type="typeOnly" route="EW" depart="1366"/>
    <vehicle id="WE_1367" type="typeOnly" route="WE" depart="1367"/>
    <vehicle id="WE_1370" type="typeOnly" route="WE" depart="1370"/>
    <vehicle id="EW_1370" type="typeOnly" route="EW" depart="1370"/>
    <vehicle id="WE_1375" type="typeOnly" route="WE" depart="1375"/>
    <vehicle id="NS_1380" type="typeOnly" route="NS" depart="1380"/>
    <vehicle id="EW_1381" type="typeOnly" route="EW" depart="1381"/>
    <vehicle id="WE_1384" type="typeOnly" route="WE" depart="1384"/>
    <vehicle id="WE_1385" type="typeOnly" route="WE" depart="1385"/>
    <vehicle id="WE_1386" type="typeOnly" route="WE" depart="1386"/>
    <vehicle id="EW_1394" type="typeOnly" route="EW" depart="1394"/>
    <vehicle id="NS_1402" type="typeOnly" route="NS" depart="1402"/>
    <vehicle id="WE_1420" type="typeOnly" route="WE" depart="1420"/>
    <vehicle id="WE_1428" type="typeOnly" route="WE" depart="1428"/>
    <vehicle id="WE_1433" type="typeOnly" route="WE" depart="1433"/>
    <vehicle id="NS_1436" type="typeOnly" route="NS" depart="1436"/>
    <vehicle id="EW_1441" type="typeOnly" route="EW" depart="1441"/>
    <vehicle id="WE_1450" type="typeOnly" route="WE" depart="1450"/>
    <vehicle id="NS_1451" type="typeOnly" route="NS" depart="1451"/>
    <vehicle id="WE_1453" type="typeOnly" route="WE" depart="1453"/>
    <vehicle id="EW_1454" type="typeOnly" route="EW" depart="1454"/>
    <vehicle id="NS_1463" type="typeOnly" route="NS" depart="1463"/>
    <vehicle id="WE_1464" type="typeOnly" route="WE" depart="1464"/>
    <vehicle id="EW_1470" type="typeOnly" route="EW" depart="1470"/>
    <vehicle id="WE_1471" type="typeOnly" route="WE" depart="1471"/>
    <vehicle id="WE_1475" type="typeOnly" route="WE" depart="1475"/>
    <vehicle id="EW_1478" type="typeOnly" route="EW" depart="1478"/>
    <vehicle id="NS_1483" type="typeOnly" route="NS" depart="1483"/>
    <vehicle id="WE_1484" type="typeOnly" route="WE" depart="1484"/>
    <vehicle id="WE_1488" type="typeOnly" route="WE" depart="1488"/>
    <vehicle id="EW_1497" type="typeOnly" route="EW" depart="1497"/>
    <vehicle id="WE_1499" type="typeOnly" route="WE" depart="1499"/>
    <vehicle id="EW_1500" type="typeOnly" route="EW" depart="1500"/>
    <vehicle id="EW_1512" type="typeOnly" route="EW" depart="1512"/>
    <vehicle id="WE_1513" type="typeOnly" route="WE" depart="1513"/>
    <vehicle id="WE_1516" type="typeOnly" route="WE" depart="1516"/>
    <vehicle id="NS_1533" type="typeOnly" route="NS" depart="1533"/>
    <vehicle id="EW_1536" type="typeOnly" route="EW" depart="1536"/>
    <vehicle id="WE_1544" type="typeOnly" route="WE" depart="1544"/>
    <vehicle id="EW_1547" type="typeOnly" route="EW" depart="1547"/>
    <vehicle id="EW_1550" type="typeOnly" route="EW" depart="1550"/>
    <vehicle id="EW_1554" type="typeOnly" route="EW" depart="1554"/>
    <vehicle id="WE_1555" type="typeOnly" route="WE" depart="1555"/>
    <vehicle id="WE_1559" type="typeOnly" route="WE" depart="1559"/>
    <vehicle id="EW_1560" type="typeOnly" route="EW" depart="1560"/>
    <vehicle id="EW_1562" type="typeOnly" route="EW" depart="1562"/>
    <vehicle id="WE_1567" type="typeOnly" route="WE" depart="1567"/>
    <vehicle id="NS_1568" type="typeOnly" route="NS" depart="1568"/>
    <vehicle id="WE_1570" type="typeOnly" route="WE" depart="1570"/>
    <vehicle id="EW_1573" type="typeOnly" route="EW" depart="1573"/>
    <vehicle id="EW_1574" type="typeOnly" route="EW" depart="1574"/>
    <vehicle id="WE_1576" type="typeOnly" route="WE" depart="1576"/>
    <vehicle id="NS_1576" type="typeOnly" route="NS" depart="1576"/>
    <vehicle id="NS_1578" type="typeOnly" route="NS" depart="1578"/>
    <vehicle id="EW_1583" type="typeOnly" route="EW" depart="1583"/>
    <vehicle id="WE_1589" type="typeOnly" route="WE" depart="1589"/>
    <vehicle id="WE_1591" type="typeOnly" route="WE" depart="1591"/>
    <vehicle id="WE_1612" type="typeOnly" route="WE" depart="1612"/>
    <vehicle id="NS_1612" type="typeOnly" route="NS" depart="1612"/>
    <vehicle id="WE_1622" type="typeOnly" route="WE" depart="1622"/>
    <vehicle id="EW_1627" type="typeOnly" route="EW" depart="1627"/>
    <vehicle id="NS_1645" type="typeOnly" route="NS" depart="1645"/>
    <vehicle id="WE_1650" type="typeOnly" route="WE" depart="1650"/>
    <vehicle id="WE_1651" type="typeOnly" route="WE" depart="1651"/>
    <vehicle id="WE_1653" type="typeOnly" route="WE" depart="1653"/>
    <vehicle id="WE_1657" type="typeOnly" route="WE" depart="1657"/>
    <vehicle id="EW_1658" type="typeOnly" route="EW" depart="1658"/>
    <vehicle id="NS_1669" type="typeOnly" route="NS" depart="1669"/>
    <vehicle id="WE_1670" type="typeOnly" route="WE" depart="1670"/>
    <vehicle id="EW_1673" type="typeOnly" route="EW" depart="1673"/>
    <vehicle id="NS_1675" type="typeOnly" route="NS" depart="1675"/>
    <vehicle id="EW_1677" type="typeOnly" route="EW" depart="1677"/>
    <vehicle id="NS_1686" type="typeOnly" route="NS" depart="1686"/>
    <vehicle id="EW_1690" type="typeOnly" route="EW" depart="1690"/>
    <vehicle id="NS_1694" type="typeOnly" route="NS" depart="1694"/>
    <vehicle id="NS_1700" type="typeOnly" route="NS" depart="1700"/>
    <vehicle id="WE_1702" type="typeOnly" route="WE" depart="1702"/>
    <vehicle id="NS_1707" type="typeOnly" route="NS" depart="1707"/>
    <vehicle id="WE_1711" type="typeOnly" route="WE" depart="1711"/>
    <vehicle id="EW_1725" type="typeOnly" route="EW" depart="1725"/>
    <vehicle id="EW_1735" type="typeOnly" route="EW" depart="1735"/>
    <vehicle id="WE_1741" type="typeOnly" route="WE" depart="1741"/>
    <vehicle id="NS_1742" type="typeOnly" route="NS" depart="1742"/>
    <vehicle id="WE_1748" type="typeOnly" route="WE" depart="1748"/>
    <vehicle id="EW_1748" type="typeOnly" route="EW" depart="1748"/>
    <vehicle id="EW_1758" type="typeOnly" route="EW" depart="1758"/>
    <vehicle id="NS_1758" type="typeOnly" route="NS" depart="1758"/>
    <vehicle id="EW_1760" type="typeOnly" route="EW" depart="1760"/>
    <vehicle id="EW_1771" type="typeOnly" route="EW" depart="1771"/>
    <vehicle id="WE_1772" type="typeOnly" route="WE" depart="1772"/>
    <vehicle id="EW_1773" type="typeOnly" route="EW" depart="1773"/>
    <vehicle id="EW_1778" type="typeOnly" route="EW" depart="1778"/>
    <vehicle id="WE_1780" type="typeOnly" route="WE" depart="1780"/>
    <vehicle id="WE_1781" type="typeOnly" route="WE" depart="1781"/>
    <vehicle id="WE_1785" type="typeOnly" route="WE" depart="1785"/>
    <vehicle id="EW_1789" type="typeOnly" route="EW" depart="1789"/>
    <vehicle id="EW_1798" type="typeOnly" route="EW" depart="1798"/>
    <vehicle id="EW_1800" type="typeOnly" route="EW" depart="1800"/>
    <vehicle id="WE_1808" type="typeOnly" route="WE" depart="1808"/>
    <vehicle id="EW_1810" type="typeOnly" route="EW" depart="1810"/>
    <vehicle id="WE_1821" type="typeOnly" route="WE" depart="1821"/>
    <vehicle id="EW_1826" type="typeOnly" route="EW" depart="1826"/>
    <vehicle id="EW_1833" type="typeOnly" route="EW" depart="1833"/>
    <vehicle id="WE_1837" type="typeOnly" route="WE" depart="1837"/>
    <vehicle id="WE_1838" type="typeOnly" route="WE" depart="1838"/>
    <vehicle id="WE_1842" type="typeOnly" route="WE" depart="1842"/>
    <vehicle id="WE_1847" type="typeOnly" route="WE" depart="1847"/>
    <vehicle id="EW_1847" type="typeOnly" route="EW" depart="1847"/>
    <vehicle id="WE_1848" type="typeOnly" route="WE" depart="1848"/>
    <vehicle id="EW_1851" type="typeOnly" route="EW" depart="1851"/>
    <vehicle id="WE_1853" type="typeOnly" route="WE" depart="1853"/>
    <vehicle id="EW_1854" type="typeOnly" route="EW" depart="1854"/>
    <vehicle id="WE_1865" type="typeOnly" route="WE" depart="1865"/>
    <vehicle id="NS_1866" type="typeOnly" route="NS" depart="1866"/>
    <vehicle id="EW_1867" type="typeOnly" route="EW" depart="1867"/>
    <vehicle id="WE_1868" type="typeOnly" route="WE" depart="1868"/>
    <vehicle id="EW_1872" type="typeOnly" route="EW" depart="1872"/>
    <vehicle id="NS_1874" type="typeOnly" route="NS" depart="1874"/>
    <vehicle id="WE_1876" type="typeOnly" route="WE" depart="1876"/>
    <vehicle id="WE_1881" type="typeOnly" route="WE" depart="1881"/>
    <vehicle id="EW_1883" type="typeOnly" route="EW" depart="1883"/>
    <vehicle id="WE_1895" type="typeOnly" route="WE" depart="1895"/>
    <vehicle id="WE_1905" type="typeOnly" route="WE" depart="1905"/>
    <vehicle id="EW_1909" type="typeOnly" route="EW" depart="1909"/>
    <vehicle id="EW_1911" type="typeOnly" route="EW" depart="1911"/>
    <vehicle id="EW_1913" type="typeOnly" route="EW" depart="1913"/>
    <vehicle id="NS_1917" type="typeOnly" route="NS" depart="1917"/>
    <vehicle id="WE_1920" type="typeOnly" route="WE" depart="1920"/>
    <vehicle id="WE_1921" type="typeOnly" route="WE" depart="1921"/>
    <vehicle id="EW_1924" type="typeOnly" route="EW" depart="1924"/>
    <vehicle id="WE_1930" type="typeOnly" route="WE" depart="1930"/>
    <vehicle id="WE_1942" type="typeOnly" route="WE" depart="1942"/>
    <vehicle id="WE_1949" type="typeOnly" route="WE" depart="1949"/>
    <vehicle id="EW_1953" type="typeOnly" route="EW" depart="1953"/>
    <vehicle id="EW_1955" type="typeOnly" route="EW" depart="1955"/>
    <vehicle id="NS_1959" type="typeOnly" route="NS" depart="1959"/>
    <vehicle id="NS_1969" type="typeOnly" route="NS" depart="1969"/>
    <vehicle id="WE_1971" type="typeOnly" route="WE" depart="1971"/>
    <vehicle id="EW_1976" type="typeOnly" route="EW" depart="1976"/>
    <vehicle id="EW_1980" type="typeOnly" route="EW" depart="1980"/>
    <vehicle id="WE_1982" type="typeOnly" route="WE" depart="1982"/>
    <vehicle id="WE_1983" type="typeOnly" route="WE" depart="1983"/>
    <vehicle id="NS_1988" type="typeOnly" route="NS" depart="1988"/>
    <vehicle id="WE_1989" type="typeOnly" route="WE" depart="1989"/>
    <vehicle id="WE_1998" type="typeOnly" route="WE" depart="1998"/>
    <vehicle id="WE_2003" type="typeOnly" route="WE" depart="2003"/>
    <vehicle id="WE_2006" type="typeOnly" route="WE" depart="2006"/>
    <vehicle id="WE_2007" type="typeOnly" route="WE" depart="2007"/>
    <vehicle id="EW_2013" type="typeOnly" route="EW" depart="2013"/>
    <vehicle id="EW_2017" type="typeOnly" route="EW" depart="2017"/>
    <vehicle id="WE_2020" type="typeOnly" route="WE" depart="2020"/>
    <vehicle id="WE_2021" type="typeOnly" route="WE" depart="2021"/>
    <vehicle id="WE_2022" type="typeOnly" route="WE" depart="2022"/>
    <vehicle id="EW_2023" type="typeOnly" route="EW" depart="2023"/>
    <vehicle id="EW_2024" type="typeOnly" route="EW" depart="2024"/>
    <vehicle id="EW_2027" type="typeOnly" route="EW" depart="2027"/>
    <vehicle id="EW_2031" type="typeOnly" route="EW" depart="2031"/>
    <vehicle id="WE_2048" type="typeOnly" route="WE" depart="2048"/>
    <vehicle id="EW_2050" type="typeOnly" route="EW" depart="2050"/>
    <vehicle id="WE_2059" type="typeOnly" route="WE" depart="2059"/>
    <vehicle id="EW_2059" type="typeOnly" route="EW" depart="2059"/>
    <vehicle id="WE_2062" type="typeOnly" route="WE" depart="2062"/>
    <vehicle id="EW_2062" type="typeOnly" route="EW" depart="2062"/>
    <vehicle id="EW_2066" type="typeOnly" route="EW" depart="2066"/>
    <vehicle id="NS_2068" type="typeOnly" route="NS" depart="2068"/>
    <vehicle id="NS_2076" type="typeOnly" route="NS" depart="2076"/>