<additional>
    <e1Detector id="De0" lane="e2to0_0" pos="450" freq="30" file="cross.out" friendlyPos="x"/>
    <laneAreaDetector id="De1" lane="e1to0_0" pos="10" endPos="492.8" file="cr1.out" freq="30" friendlyPos="x"/>
    <laneAreaDetector id="De2" lane="e3to0_0" pos="10" endPos="492.8" file="cr2.out" freq="30" friendlyPos="x"/>
    <tlLogic id="nd0" type="static" programID="1" offset="0">
        <phase duration="7" state="GrGr"/>
        <phase duration="3"  state="yryr"/>
        <phase duration="30" state="rGrG"/>
        <phase duration="3"  state="ryry"/>
    </tlLogic>
    <tlLogic id="nd0" type="static" programID="2" offset="0">
        <phase duration="8" state="GrGr"/>
        <phase duration="3"  state="yryr"/>
        <phase duration="30" state="rGrG"/>
        <phase duration="3"  state="ryry"/>
    </tlLogic>
    <tlLogic id="nd0" type="static" programID="3" offset="0">
        <phase duration="9" state="GrGr"/>
        <phase duration="3"  state="yryr"/>
        <phase duration="30" state="rGrG"/>
        <phase duration="3"  state="ryry"/>
    </tlLogic>
    <tlLogic id="nd0" type="static" programID="4" offset="0">
        <phase duration="10" state="GrGr"/>
        <phase duration="3"  state="yryr"/>
        <phase duration="30" state="rGrG"/>
        <phase duration="3"  state="ryry"/>
    </tlLogic>
    <tlLogic id="nd0" type="static" programID="5" offset="0">
        <phase duration="11" state="GrGr"/>
        <phase duration="3"  state="yryr"/>
        <phase duration="30" state="rGrG"/>
        <phase duration="3"  state="ryry"/>
    </tlLogic>
    <tlLogic id="nd0" type="static" programID="6" offset="0">
        <phase duration="12" state="GrGr"/>
        <phase duration="3"  state="yryr"/>
        <phase duration="30" state="rGrG"/>
        <phase duration="3"  state="ryry"/>
    </tlLogic>
    <tlLogic id="nd0" type="static" programID="7" offset="0">
        <phase duration="13" state="GrGr"/>
        <phase duration="3"  state="yryr"/>
        <phase duration="30" state="rGrG"/>
        <phase duration="3"  state="ryry"/>
    </tlLogic>
    <tlLogic id="nd0" type="static" programID="8" offset="0">
        <phase duration="14" state="GrGr"/>
        <phase duration="3"  state="yryr"/>
        <phase duration="30" state="rGrG"/>
        <phase duration="3"  state="ryry"/>
    </tlLogic>
    <tlLogic id="nd0" type="static" programID="9" offset="0">
        <phase duration="15" state="GrGr"/>
        <phase duration="3"  state="yryr"/>
        <phase duration="30" state="rGrG"/>
        <phase duration="3"  state="ryry"/>
    </tlLogic>
    <tlLogic id="nd0" type="static" programID="10" offset="0">
        <phase duration="16" state="GrGr"/>
        <phase duration="3"  state="yryr"/>
        <phase duration="30" state="rGrG"/>
        <phase duration="3"  state="ryry"/>
    </tlLogic>
    <tlLogic id="nd0" type="static" programID="11" offset="0">
        <phase duration="17" state="GrGr"/>
        <phase duration="3"  state="yryr"/>
        <phase duration="30" state="rGrG"/>
        <phase duration="3"  state="ryry"/>
    </tlLogic>
    <tlLogic id="nd0" type="static" programID="12" offset="0">
        <phase duration="18" state="GrGr"/>
        <phase duration="3"  state="yryr"/>
        <phase duration="30" state="rGrG"/>
        <phase duration="3"  state="ryry"/>
    </tlLogic>
    <tlLogic id="nd0" type="static" programID="13" offset="0">
        <phase duration="19" state="GrGr"/>
        <phase duration="3"  state="yryr"/>
        <phase duration="30" state="rGrG"/>
        <phase duration="3"  state="ryry"/>
    </tlLogic>
    <tlLogic id="nd0" type="static" programID="14" offset="0">
        <phase duration="20" state="GrGr"/>
        <phase duration="3"  state="yryr"/>
        <phase duration="30" state="rGrG"/>
        <phase duration="3"  state="ryry"/>
    </tlLogic>
    <tlLogic id="nd0" type="static" programID="15" offset="0">
        <phase duration="21" state="GrGr"/>
        <phase duration="3"  state="yryr"/>
        <phase duration="30" state="rGrG"/>
        <phase duration="3"  state="ryry"/>
    </tlLogic>
    <tlLogic id="nd0" type="static" programID="16" offset="0">
        <phase duration="22" state="GrGr"/>
        <phase duration="3"  state="yryr"/>
        <phase duration="30" state="rGrG"/>
        <phase duration="3"  state="ryry"/>
    </tlLogic>
    <tlLogic id="nd0" type="static" programID="17" offset="0">
        <phase duration="23" state="GrGr"/>
        <phase duration="3"  state="yryr"/>
        <phase duration="30" state="rGrG"/>
        <phase duration="3"  state="ryry"/>
    </tlLogic>
    <tlLogic id="nd0" type="static" programID="18" offset="0">
        <phase duration="24" state="GrGr"/>
        <phase duration="3"  state="yryr"/>
        <phase duration="30" state="rGrG"/>
        <phase duration="3"  state="ryry"/>
    </tlLogic>
    <tlLogic id="nd0" type="static" programID="19" offset="0">
        <phase duration="25" state="GrGr"/>
        <phase duration="3"  state="yryr"/>
        <phase duration="30" state="rGrG"/>
        <phase duration="3"  state="ryry"/>
    </tlLogic>
    <tlLogic id="nd0" type="static" programID="20" offset="0">
        <phase duration="26" state="GrGr"/>
        <phase duration="3"  state="yryr"/>
        <phase duration="30" state="rGrG"/>
        <phase duration="3"  state="ryry"/>
    </tlLogic>
    <tlLogic id="nd0" type="static" programID="21" offset="0">
        <phase duration="27" state="GrGr"/>
        <phase duration="3"  state="yryr"/>
        <phase duration="30" state="rGrG"/>
        <phase duration="3"  state="ryry"/>
    </tlLogic>
    <tlLogic id="nd0" type="static" programID="22" offset="0">
        <phase duration="28" state="GrGr"/>
        <phase duration="3"  state="yryr"/>
        <phase duration="30" state="rGrG"/>
        <phase duration="3"  state="ryry"/>
    </tlLogic>
    <tlLogic id="nd0" type="static" programID="23" offset="0">
        <phase duration="29" state="GrGr"/>
        <phase duration="3"  state="yryr"/>
        <phase duration="30" state="rGrG"/>
        <phase duration="3"  state="ryry"/>
    </tlLogic>
    <tlLogic id="nd0" type="static" programID="24" offset="0">
        <phase duration="30" state="GrGr"/>
        <phase duration="3"  state="yryr"/>
        <phase duration="30" state="rGrG"/>
        <phase duration="3"  state="ryry"/>
    </tlLogic>
    <tlLogic id="nd0" type="static" programID="25" offset="0">
        <phase duration="31" state="GrGr"/>
        <phase duration="3"  state="yryr"/>
        <phase duration="30" state="rGrG"/>
        <phase duration="3"  state="ryry"/>
    </tlLogic>
    <tlLogic id="nd0" type="static" programID="26" offset="0">
        <phase duration="32" state="GrGr"/>
        <phase duration="3"  state="yryr"/>
        <phase duration="30" state="rGrG"/>
        <phase duration="3"  state="ryry"/>
    </tlLogic>
    <tlLogic id="nd0" type="static" programID="27" offset="0">
        <phase duration="33" state="GrGr"/>
        <phase duration="3"  state="yryr"/>
        <phase duration="30" state="rGrG"/>
        <phase duration="3"  state="ryry"/>
    </tlLogic>
    <tlLogic id="nd0" type="static" programID="28" offset="0">
        <phase duration="34" state="GrGr"/>
        <phase duration="3"  state="yryr"/>
        <phase duration="30" state="rGrG"/>
        <phase duration="3"  state="ryry"/>
    </tlLogic>
    <tlLogic id="nd0" type="static" programID="29" offset="0">
        <phase duration="35" state="GrGr"/>
        <phase duration="3"  state="yryr"/>
        <phase duration="30" state="rGrG"/>
        <phase duration="3"  state="ryry"/>
    </tlLogic>
    <tlLogic id="nd0" type="static" programID="30" offset="0">
        <phase duration="36" state="GrGr"/>
        <phase duration="3"  state="yryr"/>
        <phase duration="30" state="rGrG"/>
        <phase duration="3"  state="ryry"/>
    </tlLogic>
</additional>
